{
   "completed_at" : "20201008T033633Z",
   "completed_status" : "Success",
   "created_at" : "2020-10-07T21:28:27.998995",
   "current_step" : 6,
   "eplusout_err" : "Program Version,EnergyPlus, Version 9.2.0-921312fa1d, YMD=2020.10.08 03:31,\n   ** Warning ** For Schedule:File=\"CLOTHES_DRYER_EXHAUST\", Blank Schedule Type Limits Name input -- will not be validated.\n   ** Warning ** ProcessScheduleInput: Schedule:Constant=\"ALWAYS ON CONTINUOUS\", Blank Schedule Type Limits Name input -- will not be validated.\n   ** Warning ** CalculateZoneVolume: 1 zone is not fully enclosed. For more details use:  Output:Diagnostics,DisplayExtrawarnings; \n   ** Warning ** CheckUsedConstructions: There are 2 nominally unused constructions in input.\n   **   ~~~   ** For explicit details on each unused construction, use Output:Diagnostics,DisplayExtraWarnings;\n   ** Warning ** The Standard Ratings is calculated for Coil:Cooling:DX:SingleSpeed = RES AC COOLING COIL but not at the AHRI test condition due to curve out of bound.\n   **   ~~~   **  Review the Standard Ratings calculations in the Engineering Reference for this coil type. Also, use Output:Diagnostics, DisplayExtraWarnings for further guidance.\n   ** Warning ** The Standard Ratings is calculated for Coil:Cooling:DX:SingleSpeed = RES AC|UNIT 10 COOLING COIL but not at the AHRI test condition due to curve out of bound.\n   **   ~~~   **  Review the Standard Ratings calculations in the Engineering Reference for this coil type. Also, use Output:Diagnostics, DisplayExtraWarnings for further guidance.\n   ** Warning ** The Standard Ratings is calculated for Coil:Cooling:DX:SingleSpeed = RES AC|UNIT 2 COOLING COIL but not at the AHRI test condition due to curve out of bound.\n   **   ~~~   **  Review the Standard Ratings calculations in the Engineering Reference for this coil type. Also, use Output:Diagnostics, DisplayExtraWarnings for further guidance.\n   ** Warning ** The Standard Ratings is calculated for Coil:Cooling:DX:SingleSpeed = RES AC|UNIT 3 COOLING COIL but not at the AHRI test condition due to curve out of bound.\n   **   ~~~   **  Review the Standard Ratings calculations in the Engineering Reference for this coil type. Also, use Output:Diagnostics, DisplayExtraWarnings for further guidance.\n   ** Warning ** The Standard Ratings is calculated for Coil:Cooling:DX:SingleSpeed = RES AC|UNIT 4 COOLING COIL but not at the AHRI test condition due to curve out of bound.\n   **   ~~~   **  Review the Standard Ratings calculations in the Engineering Reference for this coil type. Also, use Output:Diagnostics, DisplayExtraWarnings for further guidance.\n   ** Warning ** The Standard Ratings is calculated for Coil:Cooling:DX:SingleSpeed = RES AC|UNIT 5 COOLING COIL but not at the AHRI test condition due to curve out of bound.\n   **   ~~~   **  Review the Standard Ratings calculations in the Engineering Reference for this coil type. Also, use Output:Diagnostics, DisplayExtraWarnings for further guidance.\n   ** Warning ** The Standard Ratings is calculated for Coil:Cooling:DX:SingleSpeed = RES AC|UNIT 6 COOLING COIL but not at the AHRI test condition due to curve out of bound.\n   **   ~~~   **  Review the Standard Ratings calculations in the Engineering Reference for this coil type. Also, use Output:Diagnostics, DisplayExtraWarnings for further guidance.\n   ** Warning ** The Standard Ratings is calculated for Coil:Cooling:DX:SingleSpeed = RES AC|UNIT 7 COOLING COIL but not at the AHRI test condition due to curve out of bound.\n   **   ~~~   **  Review the Standard Ratings calculations in the Engineering Reference for this coil type. Also, use Output:Diagnostics, DisplayExtraWarnings for further guidance.\n   ** Warning ** The Standard Ratings is calculated for Coil:Cooling:DX:SingleSpeed = RES AC|UNIT 8 COOLING COIL but not at the AHRI test condition due to curve out of bound.\n   **   ~~~   **  Review the Standard Ratings calculations in the Engineering Reference for this coil type. Also, use Output:Diagnostics, DisplayExtraWarnings for further guidance.\n   ** Warning ** The Standard Ratings is calculated for Coil:Cooling:DX:SingleSpeed = RES AC|UNIT 9 COOLING COIL but not at the AHRI test condition due to curve out of bound.\n   **   ~~~   **  Review the Standard Ratings calculations in the Engineering Reference for this coil type. Also, use Output:Diagnostics, DisplayExtraWarnings for further guidance.\n   ** Warning ** Check input. Pump nominal power or motor efficiency is set to 0, for pump=PUMP VARIABLE SPEED 1\n   ** Warning ** Check input. Pump nominal power or motor efficiency is set to 0, for pump=PUMP VARIABLE SPEED 10\n   ** Warning ** Check input. Pump nominal power or motor efficiency is set to 0, for pump=PUMP VARIABLE SPEED 2\n   ** Warning ** Check input. Pump nominal power or motor efficiency is set to 0, for pump=PUMP VARIABLE SPEED 3\n   ** Warning ** Check input. Pump nominal power or motor efficiency is set to 0, for pump=PUMP VARIABLE SPEED 4\n   ** Warning ** Check input. Pump nominal power or motor efficiency is set to 0, for pump=PUMP VARIABLE SPEED 5\n   ** Warning ** Check input. Pump nominal power or motor efficiency is set to 0, for pump=PUMP VARIABLE SPEED 6\n   ** Warning ** Check input. Pump nominal power or motor efficiency is set to 0, for pump=PUMP VARIABLE SPEED 7\n   ** Warning ** Check input. Pump nominal power or motor efficiency is set to 0, for pump=PUMP VARIABLE SPEED 8\n   ** Warning ** Check input. Pump nominal power or motor efficiency is set to 0, for pump=PUMP VARIABLE SPEED 9\n   ** Warning ** Meter:Custom=\"UNIT 1:ELECTRICITYHEATING\", invalid Output Variable or Meter Name=\"HEATING COIL DEFROST ELECTRIC ENERGY\".\n   **   ~~~   ** ...will not be shown with the Meter results.\n   ** Warning ** Meter:Custom=\"UNIT 1:ELECTRICITYHEATING\", invalid Output Variable or Meter Name=\"HEATING COIL CRANKCASE HEATER ELECTRIC ENERGY\".\n   **   ~~~   ** ...will not be shown with the Meter results.\n   ** Warning ** Meter:Custom=\"UNIT 1:ELECTRICITYCOOLING\", invalid Output Variable or Meter Name=\"UNITARY SYSTEM COOLING ANCILLARY ELECTRIC ENERGY\".\n   **   ~~~   ** ...will not be shown with the Meter results.\n   ** Warning ** Meter:Custom=\"UNIT 1:WOODHEATING\", invalid Output Variable or Meter Name=\"HEATING COIL OTHERFUEL1 ENERGY\".\n   **   ~~~   ** ...will not be shown with the Meter results.\n   ** Warning ** Meter:Custom=\"UNIT 1:WOODHEATING\", no items assigned \n   **   ~~~   ** ...will not be shown with the Meter results. This may be caused by a Meter:Custom be assigned to another Meter:Custom.\n   ** Warning ** Meter:Custom=\"UNIT 2:ELECTRICITYHEATING\", invalid Output Variable or Meter Name=\"HEATING COIL DEFROST ELECTRIC ENERGY\".\n   **   ~~~   ** ...will not be shown with the Meter results.\n   ** Warning ** Meter:Custom=\"UNIT 2:ELECTRICITYHEATING\", invalid Output Variable or Meter Name=\"HEATING COIL CRANKCASE HEATER ELECTRIC ENERGY\".\n   **   ~~~   ** ...will not be shown with the Meter results.\n   ** Warning ** Meter:Custom=\"UNIT 2:ELECTRICITYCOOLING\", invalid Output Variable or Meter Name=\"UNITARY SYSTEM COOLING ANCILLARY ELECTRIC ENERGY\".\n   **   ~~~   ** ...will not be shown with the Meter results.\n   ** Warning ** Meter:Custom=\"UNIT 2:WOODHEATING\", invalid Output Variable or Meter Name=\"HEATING COIL OTHERFUEL1 ENERGY\".\n   **   ~~~   ** ...will not be shown with the Meter results.\n   ** Warning ** Meter:Custom=\"UNIT 2:WOODHEATING\", no items assigned \n   **   ~~~   ** ...will not be shown with the Meter results. This may be caused by a Meter:Custom be assigned to another Meter:Custom.\n   ** Warning ** Meter:Custom=\"UNIT 3:ELECTRICITYHEATING\", invalid Output Variable or Meter Name=\"HEATING COIL DEFROST ELECTRIC ENERGY\".\n   **   ~~~   ** ...will not be shown with the Meter results.\n   ** Warning ** Meter:Custom=\"UNIT 3:ELECTRICITYHEATING\", invalid Output Variable or Meter Name=\"HEATING COIL CRANKCASE HEATER ELECTRIC ENERGY\".\n   **   ~~~   ** ...will not be shown with the Meter results.\n   ** Warning ** Meter:Custom=\"UNIT 3:ELECTRICITYCOOLING\", invalid Output Variable or Meter Name=\"UNITARY SYSTEM COOLING ANCILLARY ELECTRIC ENERGY\".\n   **   ~~~   ** ...will not be shown with the Meter results.\n   ** Warning ** Meter:Custom=\"UNIT 3:WOODHEATING\", invalid Output Variable or Meter Name=\"HEATING COIL OTHERFUEL1 ENERGY\".\n   **   ~~~   ** ...will not be shown with the Meter results.\n   ** Warning ** Meter:Custom=\"UNIT 3:WOODHEATING\", no items assigned \n   **   ~~~   ** ...will not be shown with the Meter results. This may be caused by a Meter:Custom be assigned to another Meter:Custom.\n   ** Warning ** Meter:Custom=\"UNIT 4:ELECTRICITYHEATING\", invalid Output Variable or Meter Name=\"HEATING COIL DEFROST ELECTRIC ENERGY\".\n   **   ~~~   ** ...will not be shown with the Meter results.\n   ** Warning ** Meter:Custom=\"UNIT 4:ELECTRICITYHEATING\", invalid Output Variable or Meter Name=\"HEATING COIL CRANKCASE HEATER ELECTRIC ENERGY\".\n   **   ~~~   ** ...will not be shown with the Meter results.\n   ** Warning ** Meter:Custom=\"UNIT 4:ELECTRICITYCOOLING\", invalid Output Variable or Meter Name=\"UNITARY SYSTEM COOLING ANCILLARY ELECTRIC ENERGY\".\n   **   ~~~   ** ...will not be shown with the Meter results.\n   ** Warning ** Meter:Custom=\"UNIT 4:WOODHEATING\", invalid Output Variable or Meter Name=\"HEATING COIL OTHERFUEL1 ENERGY\".\n   **   ~~~   ** ...will not be shown with the Meter results.\n   ** Warning ** Meter:Custom=\"UNIT 4:WOODHEATING\", no items assigned \n   **   ~~~   ** ...will not be shown with the Meter results. This may be caused by a Meter:Custom be assigned to another Meter:Custom.\n   ** Warning ** Meter:Custom=\"UNIT 5:ELECTRICITYHEATING\", invalid Output Variable or Meter Name=\"HEATING COIL DEFROST ELECTRIC ENERGY\".\n   **   ~~~   ** ...will not be shown with the Meter results.\n   ** Warning ** Meter:Custom=\"UNIT 5:ELECTRICITYHEATING\", invalid Output Variable or Meter Name=\"HEATING COIL CRANKCASE HEATER ELECTRIC ENERGY\".\n   **   ~~~   ** ...will not be shown with the Meter results.\n   ** Warning ** Meter:Custom=\"UNIT 5:ELECTRICITYCOOLING\", invalid Output Variable or Meter Name=\"UNITARY SYSTEM COOLING ANCILLARY ELECTRIC ENERGY\".\n   **   ~~~   ** ...will not be shown with the Meter results.\n   ** Warning ** Meter:Custom=\"UNIT 5:WOODHEATING\", invalid Output Variable or Meter Name=\"HEATING COIL OTHERFUEL1 ENERGY\".\n   **   ~~~   ** ...will not be shown with the Meter results.\n   ** Warning ** Meter:Custom=\"UNIT 5:WOODHEATING\", no items assigned \n   **   ~~~   ** ...will not be shown with the Meter results. This may be caused by a Meter:Custom be assigned to another Meter:Custom.\n   ** Warning ** Meter:Custom=\"UNIT 6:ELECTRICITYHEATING\", invalid Output Variable or Meter Name=\"HEATING COIL DEFROST ELECTRIC ENERGY\".\n   **   ~~~   ** ...will not be shown with the Meter results.\n   ** Warning ** Meter:Custom=\"UNIT 6:ELECTRICITYHEATING\", invalid Output Variable or Meter Name=\"HEATING COIL CRANKCASE HEATER ELECTRIC ENERGY\".\n   **   ~~~   ** ...will not be shown with the Meter results.\n   ** Warning ** Meter:Custom=\"UNIT 6:ELECTRICITYCOOLING\", invalid Output Variable or Meter Name=\"UNITARY SYSTEM COOLING ANCILLARY ELECTRIC ENERGY\".\n   **   ~~~   ** ...will not be shown with the Meter results.\n   ** Warning ** Meter:Custom=\"UNIT 6:WOODHEATING\", invalid Output Variable or Meter Name=\"HEATING COIL OTHERFUEL1 ENERGY\".\n   **   ~~~   ** ...will not be shown with the Meter results.\n   ** Warning ** Meter:Custom=\"UNIT 6:WOODHEATING\", no items assigned \n   **   ~~~   ** ...will not be shown with the Meter results. This may be caused by a Meter:Custom be assigned to another Meter:Custom.\n   ** Warning ** Meter:Custom=\"UNIT 7:ELECTRICITYHEATING\", invalid Output Variable or Meter Name=\"HEATING COIL DEFROST ELECTRIC ENERGY\".\n   **   ~~~   ** ...will not be shown with the Meter results.\n   ** Warning ** Meter:Custom=\"UNIT 7:ELECTRICITYHEATING\", invalid Output Variable or Meter Name=\"HEATING COIL CRANKCASE HEATER ELECTRIC ENERGY\".\n   **   ~~~   ** ...will not be shown with the Meter results.\n   ** Warning ** Meter:Custom=\"UNIT 7:ELECTRICITYCOOLING\", invalid Output Variable or Meter Name=\"UNITARY SYSTEM COOLING ANCILLARY ELECTRIC ENERGY\".\n   **   ~~~   ** ...will not be shown with the Meter results.\n   ** Warning ** Meter:Custom=\"UNIT 7:WOODHEATING\", invalid Output Variable or Meter Name=\"HEATING COIL OTHERFUEL1 ENERGY\".\n   **   ~~~   ** ...will not be shown with the Meter results.\n   ** Warning ** Meter:Custom=\"UNIT 7:WOODHEATING\", no items assigned \n   **   ~~~   ** ...will not be shown with the Meter results. This may be caused by a Meter:Custom be assigned to another Meter:Custom.\n   ** Warning ** Meter:Custom=\"UNIT 8:ELECTRICITYHEATING\", invalid Output Variable or Meter Name=\"HEATING COIL DEFROST ELECTRIC ENERGY\".\n   **   ~~~   ** ...will not be shown with the Meter results.\n   ** Warning ** Meter:Custom=\"UNIT 8:ELECTRICITYHEATING\", invalid Output Variable or Meter Name=\"HEATING COIL CRANKCASE HEATER ELECTRIC ENERGY\".\n   **   ~~~   ** ...will not be shown with the Meter results.\n   ** Warning ** Meter:Custom=\"UNIT 8:ELECTRICITYCOOLING\", invalid Output Variable or Meter Name=\"UNITARY SYSTEM COOLING ANCILLARY ELECTRIC ENERGY\".\n   **   ~~~   ** ...will not be shown with the Meter results.\n   ** Warning ** Meter:Custom=\"UNIT 8:WOODHEATING\", invalid Output Variable or Meter Name=\"HEATING COIL OTHERFUEL1 ENERGY\".\n   **   ~~~   ** ...will not be shown with the Meter results.\n   ** Warning ** Meter:Custom=\"UNIT 8:WOODHEATING\", no items assigned \n   **   ~~~   ** ...will not be shown with the Meter results. This may be caused by a Meter:Custom be assigned to another Meter:Custom.\n   ** Warning ** Meter:Custom=\"UNIT 9:ELECTRICITYHEATING\", invalid Output Variable or Meter Name=\"HEATING COIL DEFROST ELECTRIC ENERGY\".\n   **   ~~~   ** ...will not be shown with the Meter results.\n   ** Warning ** Meter:Custom=\"UNIT 9:ELECTRICITYHEATING\", invalid Output Variable or Meter Name=\"HEATING COIL CRANKCASE HEATER ELECTRIC ENERGY\".\n   **   ~~~   ** ...will not be shown with the Meter results.\n   ** Warning ** Meter:Custom=\"UNIT 9:ELECTRICITYCOOLING\", invalid Output Variable or Meter Name=\"UNITARY SYSTEM COOLING ANCILLARY ELECTRIC ENERGY\".\n   **   ~~~   ** ...will not be shown with the Meter results.\n   ** Warning ** Meter:Custom=\"UNIT 9:WOODHEATING\", invalid Output Variable or Meter Name=\"HEATING COIL OTHERFUEL1 ENERGY\".\n   **   ~~~   ** ...will not be shown with the Meter results.\n   ** Warning ** Meter:Custom=\"UNIT 9:WOODHEATING\", no items assigned \n   **   ~~~   ** ...will not be shown with the Meter results. This may be caused by a Meter:Custom be assigned to another Meter:Custom.\n   ** Warning ** Meter:Custom=\"UNIT 10:ELECTRICITYHEATING\", invalid Output Variable or Meter Name=\"HEATING COIL DEFROST ELECTRIC ENERGY\".\n   **   ~~~   ** ...will not be shown with the Meter results.\n   ** Warning ** Meter:Custom=\"UNIT 10:ELECTRICITYHEATING\", invalid Output Variable or Meter Name=\"HEATING COIL CRANKCASE HEATER ELECTRIC ENERGY\".\n   **   ~~~   ** ...will not be shown with the Meter results.\n   ** Warning ** Meter:Custom=\"UNIT 10:ELECTRICITYCOOLING\", invalid Output Variable or Meter Name=\"UNITARY SYSTEM COOLING ANCILLARY ELECTRIC ENERGY\".\n   **   ~~~   ** ...will not be shown with the Meter results.\n   ** Warning ** Meter:Custom=\"UNIT 10:WOODHEATING\", invalid Output Variable or Meter Name=\"HEATING COIL OTHERFUEL1 ENERGY\".\n   **   ~~~   ** ...will not be shown with the Meter results.\n   ** Warning ** Meter:Custom=\"UNIT 10:WOODHEATING\", no items assigned \n   **   ~~~   ** ...will not be shown with the Meter results. This may be caused by a Meter:Custom be assigned to another Meter:Custom.\n   ** Warning ** Output:Meter: invalid Key Name=\"UNIT 1:WOODHEATING\" - not found.\n   ** Warning ** Output:Meter: invalid Key Name=\"UNIT 2:WOODHEATING\" - not found.\n   ** Warning ** Output:Meter: invalid Key Name=\"UNIT 3:WOODHEATING\" - not found.\n   ** Warning ** Output:Meter: invalid Key Name=\"UNIT 4:WOODHEATING\" - not found.\n   ** Warning ** Output:Meter: invalid Key Name=\"UNIT 5:WOODHEATING\" - not found.\n   ** Warning ** Output:Meter: invalid Key Name=\"UNIT 6:WOODHEATING\" - not found.\n   ** Warning ** Output:Meter: invalid Key Name=\"UNIT 7:WOODHEATING\" - not found.\n   ** Warning ** Output:Meter: invalid Key Name=\"UNIT 8:WOODHEATING\" - not found.\n   ** Warning ** Output:Meter: invalid Key Name=\"UNIT 9:WOODHEATING\" - not found.\n   ** Warning ** Output:Meter: invalid Key Name=\"UNIT 10:WOODHEATING\" - not found.\n   ** Warning ** Output:Meter: invalid Key Name=\"UNIT 1:WOODHEATING\" - not found.\n   ** Warning ** Output:Meter: invalid Key Name=\"UNIT 2:WOODHEATING\" - not found.\n   ** Warning ** Output:Meter: invalid Key Name=\"UNIT 3:WOODHEATING\" - not found.\n   ** Warning ** Output:Meter: invalid Key Name=\"UNIT 4:WOODHEATING\" - not found.\n   ** Warning ** Output:Meter: invalid Key Name=\"UNIT 5:WOODHEATING\" - not found.\n   ** Warning ** Output:Meter: invalid Key Name=\"UNIT 6:WOODHEATING\" - not found.\n   ** Warning ** Output:Meter: invalid Key Name=\"UNIT 7:WOODHEATING\" - not found.\n   ** Warning ** Output:Meter: invalid Key Name=\"UNIT 8:WOODHEATING\" - not found.\n   ** Warning ** Output:Meter: invalid Key Name=\"UNIT 9:WOODHEATING\" - not found.\n   ** Warning ** Output:Meter: invalid Key Name=\"UNIT 10:WOODHEATING\" - not found.\n   ** Warning ** Output:Meter: invalid Key Name=\"GAS:FACILITY\" - not found.\n   ** Warning ** Output:Meter: invalid Key Name=\"DISTRICTCOOLING:FACILITY\" - not found.\n   ** Warning ** Output:Meter: invalid Key Name=\"DISTRICTHEATING:FACILITY\" - not found.\n   ** Warning ** Output:Meter:MeterFileOnly: invalid Key Name=\"GAS:FACILITY\" - not found.\n   ** Warning ** Output:Meter:MeterFileOnly requested for \"Electricity:Facility\" (TimeStep), already on \"Output:Meter\". Will report to both eplusout.eso and eplusout.mtr\n   ************* Testing Individual Branch Integrity\n   ************* All Branches passed integrity testing\n   ************* Testing Individual Supply Air Path Integrity\n   ************* All Supply Air Paths passed integrity testing\n   ************* Testing Individual Return Air Path Integrity\n   ************* All Return Air Paths passed integrity testing\n   ************* No node connection errors were found.\n   ************* Beginning Simulation\n   ** Warning ** Processing Monthly Tabular Reports: Variable names not valid for this simulation\n   **   ~~~   ** ...use Output:Diagnostics,DisplayExtraWarnings; to show more details on individual variables.\n   ** Warning ** SimHVAC: Maximum iterations (20) exceeded for all HVAC loops, at RUN PERIOD 1, 01/01 10:45 - 11:00\n   **   ~~~   ** The solution for one or more of the Air Loop HVAC systems did not appear to converge\n   **   ~~~   ** ...use Output:Diagnostics,DisplayExtraWarnings; to show more details on each max iteration exceeded.\n   ** Warning ** SimHVAC: Maximum iterations (20) exceeded for all HVAC loops, at RUN PERIOD 1, 01/01 10:45 - 10:52\n   **   ~~~   ** The solution for one or more of the Air Loop HVAC systems did not appear to converge\n   ** Warning ** SimHVAC: Maximum iterations (20) exceeded for all HVAC loops, at RUN PERIOD 1, 01/01 11:15 - 11:30\n   **   ~~~   ** The solution for one or more of the Air Loop HVAC systems did not appear to converge\n   ** Warning ** SimHVAC: Maximum iterations (20) exceeded for all HVAC loops, at RUN PERIOD 1, 01/01 11:15 - 11:22\n   **   ~~~   ** The solution for one or more of the Air Loop HVAC systems did not appear to converge\n   ** Warning ** SimHVAC: Maximum iterations (20) exceeded for all HVAC loops, at RUN PERIOD 1, 01/01 11:30 - 11:45\n   **   ~~~   ** The solution for one or more of the Air Loop HVAC systems did not appear to converge\n   ** Warning ** SimHVAC: Maximum iterations (20) exceeded for all HVAC loops, at RUN PERIOD 1, 01/01 11:30 - 11:38\n   **   ~~~   ** The solution for one or more of the Air Loop HVAC systems did not appear to converge\n   ** Warning ** SimHVAC: Maximum iterations (20) exceeded for all HVAC loops, at RUN PERIOD 1, 01/01 11:38 - 11:45\n   **   ~~~   ** The solution for one or more of the Air Loop HVAC systems did not appear to converge\n   ** Warning ** SimHVAC: Maximum iterations (20) exceeded for all HVAC loops, at RUN PERIOD 1, 01/01 11:45 - 12:00\n   **   ~~~   ** The solution for one or more of the Air Loop HVAC systems did not appear to converge\n   ** Warning ** SimHVAC: Maximum iterations (20) exceeded for all HVAC loops, at RUN PERIOD 1, 01/01 13:15 - 13:30\n   **   ~~~   ** The solution for one or more of the Air Loop HVAC systems did not appear to converge\n   ** Warning ** SimHVAC: Maximum iterations (20) exceeded for all HVAC loops, at RUN PERIOD 1, 01/01 13:15 - 13:22\n   **   ~~~   ** The solution for one or more of the Air Loop HVAC systems did not appear to converge\n   ** Warning ** SimHVAC: Maximum iterations (20) exceeded for all HVAC loops, at RUN PERIOD 1, 01/01 13:45 - 14:00\n   **   ~~~   ** The solution for one or more of the Air Loop HVAC systems did not appear to converge\n   ** Warning ** SimHVAC: Maximum iterations (20) exceeded for all HVAC loops, at RUN PERIOD 1, 01/01 14:00 - 14:15\n   **   ~~~   ** The solution for one or more of the Air Loop HVAC systems did not appear to converge\n   ** Warning ** SimHVAC: Maximum iterations (20) exceeded for all HVAC loops, at RUN PERIOD 1, 01/01 16:30 - 16:45\n   **   ~~~   ** The solution for one or more of the Air Loop HVAC systems did not appear to converge\n   ** Warning ** SimHVAC: Maximum iterations (20) exceeded for all HVAC loops, at RUN PERIOD 1, 01/01 18:15 - 18:30\n   **   ~~~   ** The solution for one or more of the Air Loop HVAC systems did not appear to converge\n   ** Warning ** CalcDoe2DXCoil: Coil:Cooling:DX:SingleSpeed \"RES AC|UNIT 3 COOLING COIL\" - Air-cooled condenser inlet dry-bulb temperature below 0 C. Outdoor dry-bulb temperature = -5.15\n   **   ~~~   **  ... Occurrence info = RUN PERIOD 1, 01/12 06:30 - 06:45\n   **   ~~~   ** ... Operation at low ambient temperatures may require special performance curves.\n   ** Warning ** CalcDoe2DXCoil: Coil:Cooling:DX:SingleSpeed \"RES AC|UNIT 8 COOLING COIL\" - Air-cooled condenser inlet dry-bulb temperature below 0 C. Outdoor dry-bulb temperature = -2.20\n   **   ~~~   **  ... Occurrence info = RUN PERIOD 1, 02/02 21:45 - 22:00\n   **   ~~~   ** ... Operation at low ambient temperatures may require special performance curves.\n   ** Warning ** GetCurrentScheduleValue: Schedule=\"LIGHTING_EXTERIOR\" is a Schedule:File\n   **   ~~~   ** ...Use of Schedule:File when DaylightSavingTime is in effect is not recommended.\n   **   ~~~   ** ...1) Remove RunperiodControl:DaylightSavingTime object or remove DST period from Weather File.\n   **   ~~~   ** ...2) Configure other schedules and Schedule:File to account for occupant behavior during DST.\n   **   ~~~   ** ...   If you have already done this, you can ignore this message.\n   **   ~~~   ** ...When active, DaylightSavingTime will shift all scheduled items by one hour, retaining the same day type as the original.\n   ** Warning ** The resource referenced by LifeCycleCost:UsePriceEscalation= \"U.S. AVG  COMMERCIAL-ELECTRICITY\" has no energy cost. \n   **   ~~~   ** ... It is likely that the wrong resource is used. The resource should match the meter used in Utility:Tariff.\n   ** Warning ** The resource referenced by LifeCycleCost:UsePriceEscalation= \"U.S. AVG  COMMERCIAL-DISTILLATE OIL\" has no energy cost. \n   **   ~~~   ** ... It is likely that the wrong resource is used. The resource should match the meter used in Utility:Tariff.\n   ** Warning ** The resource referenced by LifeCycleCost:UsePriceEscalation= \"U.S. AVG  COMMERCIAL-RESIDUAL OIL\" has no energy cost. \n   **   ~~~   ** ... It is likely that the wrong resource is used. The resource should match the meter used in Utility:Tariff.\n   ** Warning ** The resource referenced by LifeCycleCost:UsePriceEscalation= \"U.S. AVG  COMMERCIAL-NATURAL GAS\" has no energy cost. \n   **   ~~~   ** ... It is likely that the wrong resource is used. The resource should match the meter used in Utility:Tariff.\n   ** Warning ** The resource referenced by LifeCycleCost:UsePriceEscalation= \"U.S. AVG  COMMERCIAL-COAL\" has no energy cost. \n   **   ~~~   ** ... It is likely that the wrong resource is used. The resource should match the meter used in Utility:Tariff.\n   ************* Simulation Error Summary *************\n   ************* There are 3 unused schedules in input.\n   ************* There are 45 unused week schedules in input.\n   ************* There are 27 unused day schedules in input.\n   ************* Use Output:Diagnostics,DisplayUnusedSchedules; to see them.\n   *************\n   ************* ===== Recurring Error Summary =====\n   ************* The following recurring error messages occurred.\n   *************\n   *************  ** Warning ** SimHVAC: Exceeding Maximum iterations for all HVAC loops, during RUN PERIOD 1 continues\n   *************  **   ~~~   **   This error occurred 1619 total times;\n   *************  **   ~~~   **   during Warmup 0 times;\n   *************  **   ~~~   **   during Sizing 0 times.\n   *************\n   *************  ** Warning ** CalcDoe2DXCoil: Coil:Cooling:DX:SingleSpeed=\"RES AC|UNIT 3 COOLING COIL\" - Low condenser dry-bulb temperature error continues...\n   *************  **   ~~~   **   This error occurred 38 total times;\n   *************  **   ~~~   **   during Warmup 0 times;\n   *************  **   ~~~   **   during Sizing 0 times.\n   *************  **   ~~~   **   Max=-0.15 [C]  Min=-5.15 [C]\n   *************\n   *************  ** Warning ** CalcDoe2DXCoil: Coil:Cooling:DX:SingleSpeed=\"RES AC|UNIT 8 COOLING COIL\" - Low condenser dry-bulb temperature error continues...\n   *************  **   ~~~   **   This error occurred 11 total times;\n   *************  **   ~~~   **   during Warmup 0 times;\n   *************  **   ~~~   **   during Sizing 0 times.\n   *************  **   ~~~   **   Max=-0.15 [C]  Min=-2.75 [C]\n   *************\n   *************\n   ************* ===== Final Error Summary =====\n   ************* The following error categories occurred.  Consider correcting or noting.\n   ************* Nominally Unused Constructions\n   ************* ..The nominally unused constructions warning is provided to alert you to potential conditions that can cause\n   ************* ..extra time during simulation. Each construction is calculated by the algorithm indicated in the HeatBalanceAlgorithm\n   ************* ..object. You may remove the constructions indicated (when you use the DisplayExtraWarnings option).\n   *************\n   ************* EnergyPlus Warmup Error Summary. During Warmup: 0 Warning; 0 Severe Errors.\n   ************* EnergyPlus Sizing Error Summary. During Sizing: 0 Warning; 0 Severe Errors.\n   ************* EnergyPlus Completed Successfully-- 1788 Warning; 0 Severe Errors; Elapsed Time=00hr 03min  2.18sec\n",
   "file_paths" : [
      "/var/simdata/openstudio/generated_files",
      "./files",
      "./weather",
      "../../files",
      "../../weather",
      "./"
   ],
   "hash" : "46128EA5",
   "id" : "bldg0000001up01",
   "measure_paths" : [ "measures" ],
   "started_at" : "20201008T032831Z",
   "steps" : [
      {
         "arguments" : {
            "begin_day_of_month" : 1,
            "begin_month" : 1,
            "calendar_year" : 2007,
            "end_day_of_month" : 31,
            "end_month" : 12,
            "timesteps_per_hr" : 4
         },
         "measure_dir_name" : "ResidentialSimulationControls",
         "result" : {
            "completed_at" : "20201008T032832Z",
            "measure_class_name" : "ResidentialSimulationControls",
            "measure_display_name" : "Set Residential Simulation Controls",
            "measure_name" : "residential_simulation_controls",
            "measure_taxonomy" : "Whole Building.Space Types",
            "measure_type" : "ModelMeasure",
            "measure_uid" : "874f921e-8f3c-458a-a82f-01b7d51a547e",
            "measure_version_id" : "50490d3c-8385-4b7e-a525-df4147819d03",
            "measure_version_modified" : "20200121T164352Z",
            "measure_xml_checksum" : "2C38F48B",
            "started_at" : "20201008T032832Z",
            "stderr" : "",
            "stdout" : "",
            "step_errors" : [],
            "step_files" : [],
            "step_info" : [
               "Set the simulation timesteps per hour to 4.",
               "Set the run period begin and end month/day to 1/1 and 12/31, respectively.",
               "Set the calendar year to 2007 and the start day of week to Monday; if you are running with AMY, this will be overridden by the AMY year."
            ],
            "step_result" : "Success",
            "step_values" : [
               {
                  "name" : "timesteps_per_hr",
                  "value" : 4
               },
               {
                  "name" : "begin_month",
                  "value" : 1
               },
               {
                  "name" : "begin_day_of_month",
                  "value" : 1
               },
               {
                  "name" : "end_month",
                  "value" : 12
               },
               {
                  "name" : "end_day_of_month",
                  "value" : 31
               },
               {
                  "name" : "calendar_year",
                  "value" : 2007
               }
            ],
            "step_warnings" : []
         }
      },
      {
         "arguments" : {
            "building_id" : 1,
            "sample_weight" : 1,
            "workflow_json" : "measure-info.json"
         },
         "measure_dir_name" : "BuildExistingModel",
         "result" : {
            "completed_at" : "20201008T032950Z",
            "measure_class_name" : "BuildExistingModel",
            "measure_display_name" : "Build Existing Model",
            "measure_name" : "build_existing_model",
            "measure_taxonomy" : "Whole Building.Space Types",
            "measure_type" : "ModelMeasure",
            "measure_uid" : "dedf59bb-3b88-4f16-8755-2c1ff5519cbf",
            "measure_version_id" : "b0abf044-37ee-4ac0-95a6-061bd32ce300",
            "measure_version_modified" : "20200430T194531Z",
            "measure_xml_checksum" : "2C38F48B",
            "started_at" : "20201008T032832Z",
            "stderr" : "",
            "stdout" : "[openstudio.measure.OSRunner] <1> Cannot find current Workflow Step\n[openstudio.measure.OSRunner] <1> Cannot find current Workflow Step\n[openstudio.measure.OSRunner] <1> Cannot find current Workflow Step\n[openstudio.measure.OSRunner] <1> Cannot find current Workflow Step\n[openstudio.measure.OSRunner] <1> Cannot find current Workflow Step\n[openstudio.measure.OSRunner] <1> Cannot find current Workflow Step\n[openstudio.measure.OSRunner] <1> Cannot find current Workflow Step\n[openstudio.measure.OSRunner] <1> Cannot find current Workflow Step\n[openstudio.measure.OSRunner] <1> Cannot find current Workflow Step\n[openstudio.measure.OSRunner] <1> Cannot find current Workflow Step\n[openstudio.measure.OSRunner] <1> Cannot find current Workflow Step\n[openstudio.measure.OSRunner] <1> Cannot find current Workflow Step\n[openstudio.measure.OSRunner] <1> Cannot find current Workflow Step\n[openstudio.measure.OSRunner] <1> Cannot find current Workflow Step\n[openstudio.measure.OSRunner] <1> Cannot find current Workflow Step\n[openstudio.measure.OSRunner] <1> Cannot find current Workflow Step\n[openstudio.measure.OSRunner] <1> Cannot find current Workflow Step\n[openstudio.measure.OSRunner] <1> Cannot find current Workflow Step\n[openstudio.measure.OSRunner] <1> Cannot find current Workflow Step\n[openstudio.measure.OSRunner] <1> Cannot find current Workflow Step\n[openstudio.measure.OSRunner] <1> Cannot find current Workflow Step\n[openstudio.measure.OSRunner] <1> Cannot find current Workflow Step\n[openstudio.measure.OSRunner] <1> Cannot find current Workflow Step\n[openstudio.measure.OSRunner] <1> Cannot find current Workflow Step\n[openstudio.measure.OSRunner] <1> Cannot find current Workflow Step\n[openstudio.measure.OSRunner] <1> Cannot find current Workflow Step\n[openstudio.measure.OSRunner] <1> Cannot find current Workflow Step\n[openstudio.measure.OSRunner] <1> Cannot find current Workflow Step\n[openstudio.measure.OSRunner] <1> Cannot find current Workflow Step\n[openstudio.measure.OSRunner] <1> Cannot find current Workflow Step\n",
            "step_errors" : [],
            "step_files" : [],
            "step_final_condition" : "HVAC objects updated as appropriate.",
            "step_info" : [
               "Assigning option 'CR09' for parameter 'Location Region'.",
               "Assigning option 'TX_Dallas-Fort.Worth.Intl.AP.722590' for parameter 'Location'.",
               "Assigning option '2000s' for parameter 'Vintage'.",
               "Assigning option '2000-09' for parameter 'Vintage ACS'.",
               "Assigning option 'Electricity' for parameter 'Heating Fuel'.",
               "Assigning option 'Low' for parameter 'Usage Level'.",
               "Assigning option 'Multi-Family with 5+ Units' for parameter 'Geometry Building Type RECS'.",
               "Assigning option '50 or more Unit' for parameter 'Geometry Building Type ACS'.",
               "Assigning option '54' for parameter 'Geometry Building Number Units MF'.",
               "Assigning option 'None' for parameter 'Geometry Building Number Units SFA'.",
               "Assigning option '50 or more Units high' for parameter 'Geometry Building Number Units HL'.",
               "Assigning option 'Slab' for parameter 'Geometry Foundation Type'.",
               "Assigning option 'Masonry' for parameter 'Geometry Wall Type'.",
               "Assigning option '2' for parameter 'Geometry Stories'.",
               "Assigning option 'None' for parameter 'Geometry Garage'.",
               "Assigning option '0-1499' for parameter 'Geometry Floor Area Bin'.",
               "Assigning option '1000-1499' for parameter 'Geometry Floor Area'.",
               "Assigning option '2' for parameter 'Bedrooms'.",
               "Assigning option 'Double-Loaded Interior' for parameter 'Corridor'.",
               "Assigning option '1' for parameter 'Occupants'.",
               "Assigning option 'Occupied' for parameter 'Vacancy Status'.",
               "Assigning option 'North' for parameter 'Orientation'.",
               "Assigning option '2 ft' for parameter 'Eaves'.",
               "Assigning option '20 ft^2' for parameter 'Door Area'.",
               "Assigning option 'F30 B30 L30 R30' for parameter 'Window Areas'.",
               "Assigning option 'None' for parameter 'Overhangs'.",
               "Assigning option '27' for parameter 'Neighbors'.",
               "Assigning option 'None' for parameter 'Insulation Unfinished Attic'.",
               "Assigning option 'R-38' for parameter 'Insulation Finished Roof'.",
               "Assigning option 'None' for parameter 'Radiant Barrier'.",
               "Assigning option 'None' for parameter 'Roof Material Unfinished Attic'.",
               "Assigning option 'Asphalt Shingles, Medium' for parameter 'Roof Material Finished Roof'.",
               "Assigning option 'Uninsulated' for parameter 'Insulation Slab'.",
               "Assigning option 'None' for parameter 'Insulation Crawlspace'.",
               "Assigning option 'None' for parameter 'Insulation Unfinished Basement'.",
               "Assigning option 'None' for parameter 'Insulation Finished Basement'.",
               "Assigning option 'None' for parameter 'Insulation Pier Beam'.",
               "Assigning option 'R-13' for parameter 'Insulation Interzonal Floor'.",
               "Assigning option 'CMU, 6-in Hollow, R-11' for parameter 'Insulation Wall'.",
               "Assigning option 'Summer = 0.7, Winter = 0.7' for parameter 'Interior Shading'.",
               "Assigning option '2+ Pane' for parameter 'Windows'.",
               "Assigning option 'Fiberglass' for parameter 'Doors'.",
               "Assigning option 'Electric Standard' for parameter 'Water Heater'.",
               "Assigning option '50% Usage' for parameter 'Hot Water Fixtures'.",
               "Assigning option 'Uninsulated, HomeRun, PEX' for parameter 'Hot Water Distribution'.",
               "Assigning option 'None' for parameter 'Solar Hot Water'.",
               "Assigning option 'None' for parameter 'HVAC Has Shared System'.",
               "Assigning option 'None' for parameter 'HVAC Shared Efficiencies'.",
               "Assigning option 'Ducted Heating' for parameter 'HVAC Heating Type'.",
               "Assigning option 'Electricity Electric Furnace' for parameter 'HVAC Heating Type And Fuel'.",
               "Assigning option 'Electric Furnace, 100% AFUE' for parameter 'HVAC Heating Efficiency'.",
               "Assigning option 'AC, SEER 13' for parameter 'HVAC Cooling Efficiency'.",
               "Assigning option 'Central AC' for parameter 'HVAC Cooling Type'.",
               "Assigning option '70F' for parameter 'Heating Setpoint'.",
               "Assigning option '70F' for parameter 'Cooling Setpoint'.",
               "Assigning option 'No' for parameter 'Heating Setpoint Has Offset'.",
               "Assigning option 'No' for parameter 'Cooling Setpoint Has Offset'.",
               "Assigning option '0F' for parameter 'Heating Setpoint Offset Magnitude'.",
               "Assigning option '0F' for parameter 'Cooling Setpoint Offset Magnitude'.",
               "Assigning option 'None' for parameter 'Cooling Setpoint Offset Period'.",
               "Assigning option 'None' for parameter 'Heating Setpoint Offset Period'.",
               "Assigning option 'None' for parameter 'Ceiling Fan'.",
               "Assigning option 'None' for parameter 'Dehumidifier'.",
               "Assigning option 'EF 17.6' for parameter 'Refrigerator'.",
               "Assigning option 'National Average' for parameter 'Refrigeration Schedule'.",
               "Assigning option 'Electric, 80% Usage' for parameter 'Cooking Range'.",
               "Assigning option 'None' for parameter 'Dishwasher'.",
               "Assigning option 'Yes' for parameter 'Clothes Washer Presence'.",
               "Assigning option 'EnergyStar, 80% Usage' for parameter 'Clothes Washer'.",
               "Assigning option 'Electric, 80% Usage' for parameter 'Clothes Dryer'.",
               "Assigning option '100% Incandescent' for parameter 'Lighting'.",
               "Assigning option '100% Usage' for parameter 'Lighting Interior Use'.",
               "Assigning option '100% Usage' for parameter 'Lighting Other Use'.",
               "Assigning option 'No Exterior Use' for parameter 'Holiday Lighting'.",
               "Assigning option '50%' for parameter 'Plug Loads'.",
               "Assigning option 'None' for parameter 'Electric Vehicle'.",
               "Assigning option 'None' for parameter 'Misc Extra Refrigerator'.",
               "Assigning option 'None' for parameter 'Misc Freezer'.",
               "Assigning option 'None' for parameter 'Misc Gas Fireplace'.",
               "Assigning option 'None' for parameter 'Misc Gas Grill'.",
               "Assigning option 'None' for parameter 'Misc Gas Lighting'.",
               "Assigning option 'None' for parameter 'Misc Hot Tub Spa'.",
               "Assigning option 'None' for parameter 'Misc Pool'.",
               "Assigning option 'None' for parameter 'Misc Pool Heater'.",
               "Assigning option 'None' for parameter 'Misc Pool Pump'.",
               "Assigning option 'National Average' for parameter 'Misc Pool Schedule'.",
               "Assigning option 'None' for parameter 'Misc Well Pump'.",
               "Assigning option 'Yes' for parameter 'HVAC Has Ducts'.",
               "Assigning option '20% Leakage, R-8' for parameter 'Ducts'.",
               "Assigning option '15 ACH50' for parameter 'Infiltration'.",
               "Assigning option 'Year-Round, 3 days/wk' for parameter 'Natural Ventilation'.",
               "Assigning option 'None' for parameter 'Mechanical Ventilation'.",
               "Assigning option 'Hour3' for parameter 'Bathroom Spot Vent Hour'.",
               "Assigning option 'Hour16' for parameter 'Range Spot Vent Hour'.",
               "Assigning option 'None' for parameter 'PV'.",
               "Assigning option '0.13' for parameter 'Geometry Perimeter Footprint Ratio'.",
               "Assigning option 'CBSA Dallas-Fort Worth-Arlington, TX' for parameter 'AHS Region'.",
               "Assigning option '3A' for parameter 'ASHRAE IECC Climate Zone 2004'.",
               "Assigning option 'TX' for parameter 'State'.",
               "Assigning option 'West South Central' for parameter 'Census Division'.",
               "Assigning option 'South' for parameter 'Census Region'.",
               "Assigning option 'ERCOT' for parameter 'ISO RTO Region'.",
               "Assigning option 'Hot-Humid' for parameter 'Building America Climate Zone'.",
               "Assigning option 'TX, Dallas County' for parameter 'County'.",
               "Assigning option 'TX, 02313' for parameter 'PUMA'.",
               "Calling ResidentialLocation measure with arguments:\nweather_directory -> ../../../../weather \nweather_file_name -> USA_TX_Dallas-Fort.Worth.Intl.AP.722590.epw \ndst_start_date -> April 7 \ndst_end_date -> October 26",
               "Setting weather file.",
               "Setting site data.",
               "Setting Building America climate zone to Hot-Humid.",
               "Setting mains water temperature profile.",
               "Set daylight saving time from 2007-Apr-07 to 2007-Oct-26.",
               "Calling ResidentialScheduleGenerator measure with arguments:\nnum_occupants -> 1 \nvacancy_start_date -> NA \nvacancy_end_date -> NA",
               "No vacancy period set.",
               "Generated schedule file: /var/simdata/openstudio/run/schedules.csv",
               "Calling ResidentialGeometryCreateMultifamily measure with arguments:\nminimal_collapsed -> true \nnum_units -> 54 \nfoundation_type -> slab \nfoundation_height -> 0 \nnum_floors -> 2 \nunit_ffa -> 1138 \nwall_height -> 8 \nunit_aspect_ratio -> 1.8 \ninset_width -> 0 \ninset_depth -> 0 \ninset_position -> Right \nbalcony_depth -> 0 \nnum_bathrooms -> 1.5 \nnum_bedrooms -> 2 \ncorridor_position -> Double-Loaded Interior \ncorridor_width -> 10 \norientation -> 180 \neaves_depth -> 2 \nneighbor_left_offset -> 27 \nneighbor_right_offset -> 27 \nneighbor_back_offset -> 0 \nneighbor_front_offset -> 0",
               "The 54-unit building will be modeled using 10 building units.",
               "Unit '0' has been assigned 2 bedroom(s) and 1.5 bathroom(s).",
               "Unit '1' has been assigned 2 bedroom(s) and 1.5 bathroom(s).",
               "Unit '2' has been assigned 2 bedroom(s) and 1.5 bathroom(s).",
               "Unit '3' has been assigned 2 bedroom(s) and 1.5 bathroom(s).",
               "Unit '4' has been assigned 2 bedroom(s) and 1.5 bathroom(s).",
               "Unit '5' has been assigned 2 bedroom(s) and 1.5 bathroom(s).",
               "Unit '6' has been assigned 2 bedroom(s) and 1.5 bathroom(s).",
               "Unit '7' has been assigned 2 bedroom(s) and 1.5 bathroom(s).",
               "Unit '8' has been assigned 2 bedroom(s) and 1.5 bathroom(s).",
               "Unit '9' has been assigned 2 bedroom(s) and 1.5 bathroom(s).",
               "The building has been assigned 20 bedroom(s) and 15.0 bathroom(s) across 10 unit(s).",
               "unit 1 has been assigned 1.0 occupant(s) for space 'living space'.",
               "unit 2 has been assigned 1.0 occupant(s) for space 'living space|unit 2'.",
               "unit 3 has been assigned 1.0 occupant(s) for space 'living space|unit 3|story 1'.",
               "unit 4 has been assigned 1.0 occupant(s) for space 'living space|unit 4|story 1'.",
               "unit 5 has been assigned 1.0 occupant(s) for space 'living space|unit 5|story 1'.",
               "unit 6 has been assigned 1.0 occupant(s) for space 'living space|unit 6|story 1'.",
               "unit 7 has been assigned 1.0 occupant(s) for space 'living space|unit 7|story 1'.",
               "unit 8 has been assigned 1.0 occupant(s) for space 'living space|unit 8|story 1'.",
               "unit 9 has been assigned 1.0 occupant(s) for space 'living space|unit 9|story 1'.",
               "unit 10 has been assigned 1.0 occupant(s) for space 'living space|unit 10|story 1'.",
               "The building has been assigned 10.0 occupant(s) across 10 unit(s).",
               "Added 11 res eaves.",
               "Added 2 res neighbors shading surfaces.",
               "The building's initial orientation was 0.0 azimuth.",
               "The building's final orientation was 180.0 azimuth.",
               "Calling ResidentialGeometryDoorArea measure with arguments:\ndoor_area -> 20",
               "For unit 1 added 20.0 ft^2 door.",
               "For unit 2 added 20.0 ft^2 door.",
               "For unit 3 added 20.0 ft^2 door.",
               "For unit 4 added 20.0 ft^2 door.",
               "For unit 5 added 20.0 ft^2 door.",
               "For unit 6 added 20.0 ft^2 door.",
               "For unit 7 added 20.0 ft^2 door.",
               "For unit 8 added 20.0 ft^2 door.",
               "For unit 9 added 20.0 ft^2 door.",
               "For unit 10 added 20.0 ft^2 door.",
               "Calling ResidentialGeometryWindowSkylightArea measure with arguments:\nfront_wwr -> 0.30 \nback_wwr -> 0.30 \nleft_wwr -> 0.30 \nright_wwr -> 0.30 \nfront_window_area -> 0 \nback_window_area -> 0 \nleft_window_area -> 0 \nright_window_area -> 0 \nwindow_aspect_ratio -> 1.333 \nfront_skylight_area -> 0 \nback_skylight_area -> 0 \nleft_skylight_area -> 0 \nright_skylight_area -> 0 \noverhang_depth -> 0 \noverhang_offset -> 0 \noverhang_front_facade -> false \noverhang_back_facade -> false \noverhang_left_facade -> false \noverhang_right_facade -> false",
               "Added 6 window(s), totaling 60.3 ft^2, to Surface 45.",
               "Added 6 window(s), totaling 60.3 ft^2, to Surface 33.",
               "Added 6 window(s), totaling 60.3 ft^2, to Surface 15.",
               "Added 6 window(s), totaling 60.3 ft^2, to Surface 27.",
               "Added 6 window(s), totaling 60.3 ft^2, to Surface 5.",
               "Added 6 window(s), totaling 60.3 ft^2, to Surface 57.",
               "Added 6 window(s), totaling 60.3 ft^2, to Surface 23.",
               "Added 6 window(s), totaling 60.3 ft^2, to Surface 41.",
               "Added 6 window(s), totaling 60.3 ft^2, to Surface 9.",
               "Added 6 window(s), totaling 60.3 ft^2, to Surface 53.",
               "Added 10 window(s), totaling 108.6 ft^2, to Surface 42.",
               "Added 10 window(s), totaling 108.6 ft^2, to Surface 8.",
               "Added 10 window(s), totaling 108.6 ft^2, to Surface 36.",
               "Added 10 window(s), totaling 108.6 ft^2, to Surface 2.",
               "Added 10 window(s), totaling 108.6 ft^2, to Surface 20.",
               "Added 10 window(s), totaling 108.6 ft^2, to Surface 29.",
               "Added 10 window(s), totaling 108.6 ft^2, to Surface 50.",
               "Added 10 window(s), totaling 108.6 ft^2, to Surface 59.",
               "No res overhangs to be added.",
               "Calling ResidentialConstructionsFinishedRoof measure with arguments:\ncavity_r -> 38 \ninstall_grade -> 1 \ncavity_depth -> 11.25 \nfilled_cavity -> true \nframing_factor -> 0.07 \ndrywall_thick_in -> 0.5 \nosb_thick_in -> 0.75 \nrigid_r -> 0.0 \nroofing_material -> Asphalt Shingles, Medium",
               "Material 'Asphalt Shingles, Medium' was created.",
               "Material 'RoofSheathing' was created.",
               "Material 'RoofIns' was created.",
               "Material 'Drywall 0.5 in.' was created.",
               "Construction 'RoofFinInsExt' was created with 4 materials (Asphalt Shingles, Medium | RoofSheathing | RoofIns | Drywall 0.5 in.).",
               "Surface 'Surface 37' has been assigned construction 'RoofFinInsExt'.",
               "Surface 'Surface 46' has been assigned construction 'RoofFinInsExt'.",
               "Surface 'Surface 34' has been assigned construction 'RoofFinInsExt'.",
               "Surface 'Surface 49' has been assigned construction 'RoofFinInsExt'.",
               "Surface 'Surface 58' has been assigned construction 'RoofFinInsExt'.",
               "Material 'RoofStudAndAirRoof' was created.",
               "Construction 'RoofUnfinUninsExt' was created with 3 materials (Asphalt Shingles, Medium | RoofSheathing | RoofStudAndAirRoof).",
               "Surface 'Surface 69' has been assigned construction 'RoofUnfinUninsExt'.",
               "Surface 'Surface 66' has been assigned construction 'RoofUnfinUninsExt'.",
               "Calling ResidentialConstructionsWallsCMU measure with arguments:\nthick_in -> 6 \nconductivity -> 4.29 \ndensity -> 65 \nframing_factor -> 0.076 \nfurring_r -> 11 \nfurring_cavity_depth_in -> 2 \nfurring_spacing -> 24 \ndrywall_thick_in -> 0.5 \nosb_thick_in -> 0.5 \nrigid_r -> 0.0 \nexterior_finish -> Vinyl, Light",
               "Material 'Vinyl, Light' was created.",
               "Material 'WallSheathing' was created.",
               "Material 'WallCMU' was created.",
               "Material 'WallFurring' was created.",
               "Construction 'WallExtInsFin' was created with 5 materials (Vinyl, Light | WallSheathing | WallCMU | WallFurring | Drywall 0.5 in.).",
               "Surface 'Surface 23' has been assigned construction 'WallExtInsFin'.",
               "Surface 'Surface 20' has been assigned construction 'WallExtInsFin'.",
               "Surface 'Surface 42' has been assigned construction 'WallExtInsFin'.",
               "Surface 'Surface 41' has been assigned construction 'WallExtInsFin'.",
               "Surface 'Surface 9' has been assigned construction 'WallExtInsFin'.",
               "Surface 'Surface 8' has been assigned construction 'WallExtInsFin'.",
               "Surface 'Surface 45' has been assigned construction 'WallExtInsFin'.",
               "Surface 'Surface 33' has been assigned construction 'WallExtInsFin'.",
               "Surface 'Surface 36' has been assigned construction 'WallExtInsFin'.",
               "Surface 'Surface 15' has been assigned construction 'WallExtInsFin'.",
               "Surface 'Surface 29' has been assigned construction 'WallExtInsFin'.",
               "Surface 'Surface 27' has been assigned construction 'WallExtInsFin'.",
               "Surface 'Surface 50' has been assigned construction 'WallExtInsFin'.",
               "Surface 'Surface 53' has been assigned construction 'WallExtInsFin'.",
               "Surface 'Surface 5' has been assigned construction 'WallExtInsFin'.",
               "Surface 'Surface 2' has been assigned construction 'WallExtInsFin'.",
               "Surface 'Surface 57' has been assigned construction 'WallExtInsFin'.",
               "Surface 'Surface 59' has been assigned construction 'WallExtInsFin'.",
               "Material 'WallStudAndCavity' was created.",
               "Construction 'WallExtUninsUnfin' was created with 3 materials (Vinyl, Light | WallSheathing | WallStudAndCavity).",
               "Surface 'Surface 76' has been assigned construction 'WallExtUninsUnfin'.",
               "Surface 'Surface 67' has been assigned construction 'WallExtUninsUnfin'.",
               "Surface 'Surface 72' has been assigned construction 'WallExtUninsUnfin'.",
               "Surface 'Surface 62' has been assigned construction 'WallExtUninsUnfin'.",
               "Surface 'Surface 64' has been assigned construction 'WallExtUninsUnfin'.",
               "Surface 'Surface 80' has been assigned construction 'WallExtUninsUnfin'.",
               "Material 'WallStudAndCavity 1' was created.",
               "Construction 'WallIntFinUninsFin' was created with 3 materials (Vinyl, Light | WallStudAndCavity 1 | Drywall 0.5 in.).",
               "Surface 'Surface 22' has been assigned construction 'WallIntFinUninsFin'.",
               "Surface 'Surface 24' has been assigned construction 'WallIntFinUninsFin'.",
               "Construction 'WallIntFinUninsFin Reversed' was created with 3 materials (Drywall 0.5 in. | WallStudAndCavity 1 | Vinyl, Light).",
               "Surface 'Surface 10' has been assigned construction 'WallIntFinUninsFin Reversed'.",
               "Surface 'Surface 38' has been assigned construction 'WallIntFinUninsFin'.",
               "Surface 'Surface 54' has been assigned construction 'WallIntFinUninsFin Reversed'.",
               "Surface 'Surface 40' has been assigned construction 'WallIntFinUninsFin'.",
               "Surface 'Surface 10' has been assigned construction 'WallIntFinUninsFin'.",
               "Surface 'Surface 24' has been assigned construction 'WallIntFinUninsFin Reversed'.",
               "Surface 'Surface 11' has been assigned construction 'WallIntFinUninsFin'.",
               "Surface 'Surface 47' has been assigned construction 'WallIntFinUninsFin'.",
               "Surface 'Surface 60' has been assigned construction 'WallIntFinUninsFin Reversed'.",
               "Surface 'Surface 48' has been assigned construction 'WallIntFinUninsFin'.",
               "Surface 'Surface 35' has been assigned construction 'WallIntFinUninsFin Reversed'.",
               "Surface 'Surface 43' has been assigned construction 'WallIntFinUninsFin'.",
               "Surface 'Surface 35' has been assigned construction 'WallIntFinUninsFin'.",
               "Surface 'Surface 48' has been assigned construction 'WallIntFinUninsFin Reversed'.",
               "Surface 'Surface 31' has been assigned construction 'WallIntFinUninsFin'.",
               "Surface 'Surface 13' has been assigned construction 'WallIntFinUninsFin'.",
               "Surface 'Surface 17' has been assigned construction 'WallIntFinUninsFin'.",
               "Surface 'Surface 30' has been assigned construction 'WallIntFinUninsFin Reversed'.",
               "Surface 'Surface 18' has been assigned construction 'WallIntFinUninsFin'.",
               "Surface 'Surface 4' has been assigned construction 'WallIntFinUninsFin Reversed'.",
               "Surface 'Surface 25' has been assigned construction 'WallIntFinUninsFin'.",
               "Surface 'Surface 30' has been assigned construction 'WallIntFinUninsFin'.",
               "Surface 'Surface 17' has been assigned construction 'WallIntFinUninsFin Reversed'.",
               "Surface 'Surface 54' has been assigned construction 'WallIntFinUninsFin'.",
               "Surface 'Surface 38' has been assigned construction 'WallIntFinUninsFin Reversed'.",
               "Surface 'Surface 52' has been assigned construction 'WallIntFinUninsFin'.",
               "Surface 'Surface 3' has been assigned construction 'WallIntFinUninsFin'.",
               "Surface 'Surface 4' has been assigned construction 'WallIntFinUninsFin'.",
               "Surface 'Surface 18' has been assigned construction 'WallIntFinUninsFin Reversed'.",
               "Surface 'Surface 55' has been assigned construction 'WallIntFinUninsFin'.",
               "Surface 'Surface 60' has been assigned construction 'WallIntFinUninsFin'.",
               "Surface 'Surface 47' has been assigned construction 'WallIntFinUninsFin Reversed'.",
               "Material 'WallStudAndCavity 2' was created.",
               "Construction 'WallIntUnfinUninsUnfin' was created with 2 materials (Vinyl, Light | WallStudAndCavity 2).",
               "Surface 'Surface 73' has been assigned construction 'WallIntUnfinUninsUnfin'.",
               "Surface 'Surface 75' has been assigned construction 'WallIntUnfinUninsUnfin'.",
               "Surface 'Surface 68' has been assigned construction 'WallIntUnfinUninsUnfin'.",
               "Surface 'Surface 70' has been assigned construction 'WallIntUnfinUninsUnfin'.",
               "Surface 'Surface 74' has been assigned construction 'WallIntUnfinUninsUnfin'.",
               "Surface 'Surface 77' has been assigned construction 'WallIntUnfinUninsUnfin'.",
               "Surface 'Surface 63' has been assigned construction 'WallIntUnfinUninsUnfin'.",
               "Surface 'Surface 78' has been assigned construction 'WallIntUnfinUninsUnfin'.",
               "Surface 'Surface 79' has been assigned construction 'WallIntUnfinUninsUnfin'.",
               "Surface 'Surface 65' has been assigned construction 'WallIntUnfinUninsUnfin'.",
               "Material 'res furniture material living space|unit 4|story 1' was created.",
               "Construction 'res furniture construction living space|unit 4|story 1' was created with 1 material (res furniture material living space|unit 4|story 1).",
               "InternalMassDefinition 'res furniture mass living space|unit 4|story 1' has been assigned construction 'res furniture construction living space|unit 4|story 1'.",
               "Assigned internal mass object 'res furniture mass living space|unit 4|story 1' to space 'living space|unit 4|story 1'.",
               "Construction 'res furniture construction living space|unit 7|story 1' was created with 1 material (res furniture material living space|unit 4|story 1).",
               "InternalMassDefinition 'res furniture mass living space|unit 7|story 1' has been assigned construction 'res furniture construction living space|unit 7|story 1'.",
               "Assigned internal mass object 'res furniture mass living space|unit 7|story 1' to space 'living space|unit 7|story 1'.",
               "Construction 'res furniture construction living space|unit 2' was created with 1 material (res furniture material living space|unit 4|story 1).",
               "InternalMassDefinition 'res furniture mass living space|unit 2' has been assigned construction 'res furniture construction living space|unit 2'.",
               "Assigned internal mass object 'res furniture mass living space|unit 2' to space 'living space|unit 2'.",
               "Construction 'res furniture construction living space|unit 8|story 1' was created with 1 material (res furniture material living space|unit 4|story 1).",
               "InternalMassDefinition 'res furniture mass living space|unit 8|story 1' has been assigned construction 'res furniture construction living space|unit 8|story 1'.",
               "Assigned internal mass object 'res furniture mass living space|unit 8|story 1' to space 'living space|unit 8|story 1'.",
               "Construction 'res furniture construction living space|unit 6|story 1' was created with 1 material (res furniture material living space|unit 4|story 1).",
               "InternalMassDefinition 'res furniture mass living space|unit 6|story 1' has been assigned construction 'res furniture construction living space|unit 6|story 1'.",
               "Assigned internal mass object 'res furniture mass living space|unit 6|story 1' to space 'living space|unit 6|story 1'.",
               "Construction 'res furniture construction living space|unit 3|story 1' was created with 1 material (res furniture material living space|unit 4|story 1).",
               "InternalMassDefinition 'res furniture mass living space|unit 3|story 1' has been assigned construction 'res furniture construction living space|unit 3|story 1'.",
               "Assigned internal mass object 'res furniture mass living space|unit 3|story 1' to space 'living space|unit 3|story 1'.",
               "Construction 'res furniture construction living space|unit 5|story 1' was created with 1 material (res furniture material living space|unit 4|story 1).",
               "InternalMassDefinition 'res furniture mass living space|unit 5|story 1' has been assigned construction 'res furniture construction living space|unit 5|story 1'.",
               "Assigned internal mass object 'res furniture mass living space|unit 5|story 1' to space 'living space|unit 5|story 1'.",
               "Construction 'res furniture construction living space|unit 9|story 1' was created with 1 material (res furniture material living space|unit 4|story 1).",
               "InternalMassDefinition 'res furniture mass living space|unit 9|story 1' has been assigned construction 'res furniture construction living space|unit 9|story 1'.",
               "Assigned internal mass object 'res furniture mass living space|unit 9|story 1' to space 'living space|unit 9|story 1'.",
               "Construction 'res furniture construction living space' was created with 1 material (res furniture material living space|unit 4|story 1).",
               "InternalMassDefinition 'res furniture mass living space' has been assigned construction 'res furniture construction living space'.",
               "Assigned internal mass object 'res furniture mass living space' to space 'living space'.",
               "Construction 'res furniture construction living space|unit 10|story 1' was created with 1 material (res furniture material living space|unit 4|story 1).",
               "InternalMassDefinition 'res furniture mass living space|unit 10|story 1' has been assigned construction 'res furniture construction living space|unit 10|story 1'.",
               "Assigned internal mass object 'res furniture mass living space|unit 10|story 1' to space 'living space|unit 10|story 1'.",
               "Calling ResidentialConstructionsSlab measure with arguments:\nperimeter_r -> 0 \nperimeter_width -> 0 \nwhole_r -> 0 \ngap_r -> 0 \nexterior_r -> 0 \nexterior_depth -> 0",
               "Material 'Concrete 4.0 in.' was created.",
               "Material 'Floor Covering' was created.",
               "Construction 'FloorFndGrndFinSlab' was created with 2 materials (Concrete 4.0 in. | Floor Covering).",
               "Surface 'Surface 21' has been assigned construction 'FloorFndGrndFinSlab'.",
               "Construction 'FloorFndGrndFinSlab 1' was created with 2 materials (Concrete 4.0 in. | Floor Covering).",
               "Surface 'Surface 7' has been assigned construction 'FloorFndGrndFinSlab 1'.",
               "Construction 'FloorFndGrndFinSlab 2' was created with 2 materials (Concrete 4.0 in. | Floor Covering).",
               "Surface 'Surface 14' has been assigned construction 'FloorFndGrndFinSlab 2'.",
               "Construction 'FloorFndGrndFinSlab 3' was created with 2 materials (Concrete 4.0 in. | Floor Covering).",
               "Surface 'Surface 26' has been assigned construction 'FloorFndGrndFinSlab 3'.",
               "Construction 'FloorFndGrndFinSlab 4' was created with 2 materials (Concrete 4.0 in. | Floor Covering).",
               "Surface 'Surface 1' has been assigned construction 'FloorFndGrndFinSlab 4'.",
               "Construction 'FloorFndGrndUnfinSlab' was created with 1 material (Concrete 4.0 in.).",
               "Surface 'Surface 61' has been assigned construction 'FloorFndGrndUnfinSlab'.",
               "Calling ResidentialConstructionsFloors measure with arguments:\ncavity_r -> 13 \ninstall_grade -> 1 \nframing_factor -> 0.13 \njoist_height_in -> 5.5",
               "Material 'FloorFinStudAndAirFloor' was created.",
               "Material 'Wood Floor' was created.",
               "Construction 'FloorFinUninsFin' was created with 5 materials (Drywall 0.5 in. | FloorFinStudAndAirFloor | RoofSheathing | Wood Floor | Floor Covering).",
               "Surface 'Surface 39' has been assigned construction 'FloorFinUninsFin'.",
               "Construction 'FloorFinUninsFin Reversed' was created with 5 materials (Floor Covering | Wood Floor | RoofSheathing | FloorFinStudAndAirFloor | Drywall 0.5 in.).",
               "Surface 'Surface 12' has been assigned construction 'FloorFinUninsFin Reversed'.",
               "Surface 'Surface 44' has been assigned construction 'FloorFinUninsFin'.",
               "Surface 'Surface 16' has been assigned construction 'FloorFinUninsFin Reversed'.",
               "Surface 'Surface 32' has been assigned construction 'FloorFinUninsFin'.",
               "Surface 'Surface 6' has been assigned construction 'FloorFinUninsFin Reversed'.",
               "Surface 'Surface 51' has been assigned construction 'FloorFinUninsFin'.",
               "Surface 'Surface 19' has been assigned construction 'FloorFinUninsFin Reversed'.",
               "Surface 'Surface 56' has been assigned construction 'FloorFinUninsFin'.",
               "Surface 'Surface 28' has been assigned construction 'FloorFinUninsFin Reversed'.",
               "Material 'FloorFinStudAndAirFloor 1' was created.",
               "Construction 'FloorUnfinUninsUnfin' was created with 2 materials (FloorFinStudAndAirFloor 1 | RoofSheathing).",
               "Surface 'Surface 71' has been assigned construction 'FloorUnfinUninsUnfin'.",
               "Calling ResidentialConstructionsWindowsSkylights measure with arguments:\nwindow_heat_shade_mult -> 0.7 \nwindow_cool_shade_mult -> 0.7 \nskylight_heat_shade_mult -> 0.7 \nskylight_cool_shade_mult -> 0.7 \nwindow_ufactor -> 0.49 \nwindow_shgc -> 0.56 \nskylight_ufactor -> 0.37 \nskylight_shgc -> 0.3",
               "Material 'WindowMaterial' was created.",
               "Construction 'WindowConstruction' was created with 1 material (WindowMaterial).",
               "SubSurface 'Surface 59 - Window 10' has been assigned construction 'WindowConstruction'.",
               "SubSurface 'Surface 59 - Window 8' has been assigned construction 'WindowConstruction'.",
               "SubSurface 'Surface 59 - Window 7' has been assigned construction 'WindowConstruction'.",
               "SubSurface 'Surface 59 - Window 6' has been assigned construction 'WindowConstruction'.",
               "SubSurface 'Surface 59 - Window 3' has been assigned construction 'WindowConstruction'.",
               "SubSurface 'Surface 59 - Window 2' has been assigned construction 'WindowConstruction'.",
               "SubSurface 'Surface 59 - Window 1' has been assigned construction 'WindowConstruction'.",
               "SubSurface 'Surface 50 - Window 10' has been assigned construction 'WindowConstruction'.",
               "SubSurface 'Surface 50 - Window 9' has been assigned construction 'WindowConstruction'.",
               "SubSurface 'Surface 50 - Window 8' has been assigned construction 'WindowConstruction'.",
               "SubSurface 'Surface 50 - Window 6' has been assigned construction 'WindowConstruction'.",
               "SubSurface 'Surface 50 - Window 4' has been assigned construction 'WindowConstruction'.",
               "SubSurface 'Surface 50 - Window 3' has been assigned construction 'WindowConstruction'.",
               "SubSurface 'Surface 50 - Window 1' has been assigned construction 'WindowConstruction'.",
               "SubSurface 'Surface 29 - Window 10' has been assigned construction 'WindowConstruction'.",
               "SubSurface 'Surface 29 - Window 9' has been assigned construction 'WindowConstruction'.",
               "SubSurface 'Surface 29 - Window 8' has been assigned construction 'WindowConstruction'.",
               "SubSurface 'Surface 29 - Window 5' has been assigned construction 'WindowConstruction'.",
               "SubSurface 'Surface 29 - Window 4' has been assigned construction 'WindowConstruction'.",
               "SubSurface 'Surface 29 - Window 3' has been assigned construction 'WindowConstruction'.",
               "SubSurface 'Surface 29 - Window 1' has been assigned construction 'WindowConstruction'.",
               "SubSurface 'Surface 20 - Window 9' has been assigned construction 'WindowConstruction'.",
               "SubSurface 'Surface 20 - Window 8' has been assigned construction 'WindowConstruction'.",
               "SubSurface 'Surface 20 - Window 5' has been assigned construction 'WindowConstruction'.",
               "SubSurface 'Surface 20 - Window 4' has been assigned construction 'WindowConstruction'.",
               "SubSurface 'Surface 20 - Window 3' has been assigned construction 'WindowConstruction'.",
               "SubSurface 'Surface 20 - Window 2' has been assigned construction 'WindowConstruction'.",
               "SubSurface 'Surface 2 - Window 9' has been assigned construction 'WindowConstruction'.",
               "SubSurface 'Surface 20 - Window 10' has been assigned construction 'WindowConstruction'.",
               "SubSurface 'Surface 2 - Window 4' has been assigned construction 'WindowConstruction'.",
               "SubSurface 'Surface 2 - Window 2' has been assigned construction 'WindowConstruction'.",
               "SubSurface 'Surface 2 - Window 1' has been assigned construction 'WindowConstruction'.",
               "SubSurface 'Surface 36 - Window 10' has been assigned construction 'WindowConstruction'.",
               "SubSurface 'Surface 36 - Window 9' has been assigned construction 'WindowConstruction'.",
               "SubSurface 'Surface 36 - Window 8' has been assigned construction 'WindowConstruction'.",
               "SubSurface 'Surface 8 - Window 3' has been assigned construction 'WindowConstruction'.",
               "SubSurface 'Surface 57 - Window 5' has been assigned construction 'WindowConstruction'.",
               "SubSurface 'Surface 59 - Window 4' has been assigned construction 'WindowConstruction'.",
               "SubSurface 'Surface 57 - Window 1' has been assigned construction 'WindowConstruction'.",
               "SubSurface 'Surface 5 - Window 5' has been assigned construction 'WindowConstruction'.",
               "SubSurface 'Surface 50 - Window 7' has been assigned construction 'WindowConstruction'.",
               "SubSurface 'Surface 5 - Window 6' has been assigned construction 'WindowConstruction'.",
               "SubSurface 'Surface 23 - Window 2' has been assigned construction 'WindowConstruction'.",
               "SubSurface 'Surface 29 - Window 2' has been assigned construction 'WindowConstruction'.",
               "SubSurface 'Surface 53 - Window 4' has been assigned construction 'WindowConstruction'.",
               "SubSurface 'Surface 5 - Window 3' has been assigned construction 'WindowConstruction'.",
               "SubSurface 'Surface 15 - Window 6' has been assigned construction 'WindowConstruction'.",
               "SubSurface 'Surface 27 - Window 2' has been assigned construction 'WindowConstruction'.",
               "SubSurface 'Surface 29 - Window 6' has been assigned construction 'WindowConstruction'.",
               "SubSurface 'Surface 27 - Window 3' has been assigned construction 'WindowConstruction'.",
               "SubSurface 'Surface 15 - Window 4' has been assigned construction 'WindowConstruction'.",
               "SubSurface 'Surface 15 - Window 3' has been assigned construction 'WindowConstruction'.",
               "SubSurface 'Surface 45 - Window 5' has been assigned construction 'WindowConstruction'.",
               "SubSurface 'Surface 5 - Window 4' has been assigned construction 'WindowConstruction'.",
               "SubSurface 'Surface 36 - Window 6' has been assigned construction 'WindowConstruction'.",
               "SubSurface 'Surface 5 - Window 1' has been assigned construction 'WindowConstruction'.",
               "SubSurface 'Surface 53 - Window 6' has been assigned construction 'WindowConstruction'.",
               "SubSurface 'Surface 57 - Window 3' has been assigned construction 'WindowConstruction'.",
               "SubSurface 'Surface 50 - Window 2' has been assigned construction 'WindowConstruction'.",
               "SubSurface 'Surface 20 - Window 7' has been assigned construction 'WindowConstruction'.",
               "SubSurface 'Surface 2 - Window 7' has been assigned construction 'WindowConstruction'.",
               "SubSurface 'Surface 45 - Window 2' has been assigned construction 'WindowConstruction'.",
               "SubSurface 'Surface 45 - Window 4' has been assigned construction 'WindowConstruction'.",
               "SubSurface 'Surface 36 - Window 4' has been assigned construction 'WindowConstruction'.",
               "SubSurface 'Surface 2 - Window 6' has been assigned construction 'WindowConstruction'.",
               "SubSurface 'Surface 57 - Window 2' has been assigned construction 'WindowConstruction'.",
               "SubSurface 'Surface 33 - Window 3' has been assigned construction 'WindowConstruction'.",
               "SubSurface 'Surface 8 - Window 1' has been assigned construction 'WindowConstruction'.",
               "SubSurface 'Surface 5 - Window 2' has been assigned construction 'WindowConstruction'.",
               "SubSurface 'Surface 8 - Window 2' has been assigned construction 'WindowConstruction'.",
               "SubSurface 'Surface 8 - Window 6' has been assigned construction 'WindowConstruction'.",
               "SubSurface 'Surface 29 - Window 7' has been assigned construction 'WindowConstruction'.",
               "SubSurface 'Surface 9 - Window 2' has been assigned construction 'WindowConstruction'.",
               "SubSurface 'Surface 23 - Window 1' has been assigned construction 'WindowConstruction'.",
               "SubSurface 'Surface 45 - Window 1' has been assigned construction 'WindowConstruction'.",
               "SubSurface 'Surface 42 - Window 7' has been assigned construction 'WindowConstruction'.",
               "SubSurface 'Surface 27 - Window 4' has been assigned construction 'WindowConstruction'.",
               "SubSurface 'Surface 27 - Window 5' has been assigned construction 'WindowConstruction'.",
               "SubSurface 'Surface 53 - Window 1' has been assigned construction 'WindowConstruction'.",
               "SubSurface 'Surface 42 - Window 8' has been assigned construction 'WindowConstruction'.",
               "SubSurface 'Surface 20 - Window 1' has been assigned construction 'WindowConstruction'.",
               "SubSurface 'Surface 27 - Window 6' has been assigned construction 'WindowConstruction'.",
               "SubSurface 'Surface 33 - Window 1' has been assigned construction 'WindowConstruction'.",
               "SubSurface 'Surface 15 - Window 2' has been assigned construction 'WindowConstruction'.",
               "SubSurface 'Surface 45 - Window 6' has been assigned construction 'WindowConstruction'.",
               "SubSurface 'Surface 33 - Window 2' has been assigned construction 'WindowConstruction'.",
               "SubSurface 'Surface 8 - Window 7' has been assigned construction 'WindowConstruction'.",
               "SubSurface 'Surface 27 - Window 1' has been assigned construction 'WindowConstruction'.",
               "SubSurface 'Surface 59 - Window 9' has been assigned construction 'WindowConstruction'.",
               "SubSurface 'Surface 42 - Window 10' has been assigned construction 'WindowConstruction'.",
               "SubSurface 'Surface 33 - Window 6' has been assigned construction 'WindowConstruction'.",
               "SubSurface 'Surface 15 - Window 5' has been assigned construction 'WindowConstruction'.",
               "SubSurface 'Surface 33 - Window 4' has been assigned construction 'WindowConstruction'.",
               "SubSurface 'Surface 33 - Window 5' has been assigned construction 'WindowConstruction'.",
               "SubSurface 'Surface 53 - Window 2' has been assigned construction 'WindowConstruction'.",
               "SubSurface 'Surface 36 - Window 1' has been assigned construction 'WindowConstruction'.",
               "SubSurface 'Surface 23 - Window 3' has been assigned construction 'WindowConstruction'.",
               "SubSurface 'Surface 23 - Window 4' has been assigned construction 'WindowConstruction'.",
               "SubSurface 'Surface 23 - Window 5' has been assigned construction 'WindowConstruction'.",
               "SubSurface 'Surface 41 - Window 2' has been assigned construction 'WindowConstruction'.",
               "SubSurface 'Surface 42 - Window 2' has been assigned construction 'WindowConstruction'.",
               "SubSurface 'Surface 8 - Window 5' has been assigned construction 'WindowConstruction'.",
               "SubSurface 'Surface 41 - Window 5' has been assigned construction 'WindowConstruction'.",
               "SubSurface 'Surface 41 - Window 1' has been assigned construction 'WindowConstruction'.",
               "SubSurface 'Surface 8 - Window 10' has been assigned construction 'WindowConstruction'.",
               "SubSurface 'Surface 20 - Window 6' has been assigned construction 'WindowConstruction'.",
               "SubSurface 'Surface 41 - Window 3' has been assigned construction 'WindowConstruction'.",
               "SubSurface 'Surface 45 - Window 3' has been assigned construction 'WindowConstruction'.",
               "SubSurface 'Surface 41 - Window 4' has been assigned construction 'WindowConstruction'.",
               "SubSurface 'Surface 41 - Window 6' has been assigned construction 'WindowConstruction'.",
               "SubSurface 'Surface 9 - Window 1' has been assigned construction 'WindowConstruction'.",
               "SubSurface 'Surface 42 - Window 9' has been assigned construction 'WindowConstruction'.",
               "SubSurface 'Surface 9 - Window 3' has been assigned construction 'WindowConstruction'.",
               "SubSurface 'Surface 23 - Window 6' has been assigned construction 'WindowConstruction'.",
               "SubSurface 'Surface 9 - Window 4' has been assigned construction 'WindowConstruction'.",
               "SubSurface 'Surface 57 - Window 6' has been assigned construction 'WindowConstruction'.",
               "SubSurface 'Surface 9 - Window 5' has been assigned construction 'WindowConstruction'.",
               "SubSurface 'Surface 50 - Window 5' has been assigned construction 'WindowConstruction'.",
               "SubSurface 'Surface 36 - Window 2' has been assigned construction 'WindowConstruction'.",
               "SubSurface 'Surface 2 - Window 3' has been assigned construction 'WindowConstruction'.",
               "SubSurface 'Surface 9 - Window 6' has been assigned construction 'WindowConstruction'.",
               "SubSurface 'Surface 53 - Window 3' has been assigned construction 'WindowConstruction'.",
               "SubSurface 'Surface 53 - Window 5' has been assigned construction 'WindowConstruction'.",
               "SubSurface 'Surface 59 - Window 5' has been assigned construction 'WindowConstruction'.",
               "SubSurface 'Surface 15 - Window 1' has been assigned construction 'WindowConstruction'.",
               "SubSurface 'Surface 42 - Window 1' has been assigned construction 'WindowConstruction'.",
               "SubSurface 'Surface 42 - Window 3' has been assigned construction 'WindowConstruction'.",
               "SubSurface 'Surface 57 - Window 4' has been assigned construction 'WindowConstruction'.",
               "SubSurface 'Surface 42 - Window 4' has been assigned construction 'WindowConstruction'.",
               "SubSurface 'Surface 42 - Window 5' has been assigned construction 'WindowConstruction'.",
               "SubSurface 'Surface 42 - Window 6' has been assigned construction 'WindowConstruction'.",
               "SubSurface 'Surface 2 - Window 8' has been assigned construction 'WindowConstruction'.",
[...]
               "Registering 6650.72 for electricity_ceiling_fan_kwh.",
               "Registering 0.0 for electricity_extra_refrigerator_kwh.",
               "Registering 0.0 for electricity_freezer_kwh.",
               "Registering 0.0 for electricity_pool_heater_kwh.",
               "Registering 0.0 for natural_gas_pool_heater_therm.",
               "Registering 0.0 for electricity_pool_pump_kwh.",
               "Registering 0.0 for electricity_hot_tub_heater_kwh.",
               "Registering 0.0 for natural_gas_hot_tub_heater_therm.",
               "Registering 0.0 for electricity_hot_tub_pump_kwh.",
               "Registering 0.0 for natural_gas_grill_therm.",
               "Registering 0.0 for natural_gas_lighting_therm.",
               "Registering 0.0 for natural_gas_fireplace_therm.",
               "Registering 0.0 for electricity_well_pump_kwh.",
               "Registering 0.0 for electricity_recirc_pump_kwh.",
               "Registering 0.0 for electricity_vehicle_kwh.",
               "Registering 1.0 for weight.",
               "Registering Upgrade1 for upgrade_name.",
               "Registering 0.0 for upgrade_cost_usd."
            ],
            "step_result" : "Success",
            "step_values" : [
               {
                  "name" : "include_enduse_subcategories",
                  "value" : true
               },
               {
                  "name" : "total_site_electricity_kwh",
                  "value" : 410145.25363607705
               },
               {
                  "name" : "electricity_heating_kwh",
                  "value" : 71103.628766663955
               },
               {
                  "name" : "electricity_central_system_heating_kwh",
                  "value" : 0
               },
               {
                  "name" : "electricity_cooling_kwh",
                  "value" : 93942.138953582049
               },
               {
                  "name" : "electricity_central_system_cooling_kwh",
                  "value" : 0
               },
               {
                  "name" : "electricity_interior_lighting_kwh",
                  "value" : 61800.915953008785
               },
               {
                  "name" : "electricity_exterior_lighting_kwh",
                  "value" : 10725.508162625649
               },
               {
                  "name" : "electricity_exterior_holiday_lighting_kwh",
                  "value" : 0
               },
               {
                  "name" : "electricity_garage_lighting_kwh",
                  "value" : 0
               },
               {
                  "name" : "electricity_fans_heating_kwh",
                  "value" : 2243.3540750544485
               },
               {
                  "name" : "electricity_fans_cooling_kwh",
                  "value" : 21646.103045247302
               },
               {
                  "name" : "electricity_pumps_heating_kwh",
                  "value" : 0
               },
               {
                  "name" : "electricity_central_system_pumps_heating_kwh",
                  "value" : 0
               },
               {
                  "name" : "electricity_pumps_cooling_kwh",
                  "value" : 0
               },
               {
                  "name" : "electricity_central_system_pumps_cooling_kwh",
                  "value" : 0
               },
               {
                  "name" : "electricity_water_systems_kwh",
                  "value" : 44813.631503160752
               },
               {
                  "name" : "electricity_pv_kwh",
                  "value" : 0
               },
               {
                  "name" : "total_site_natural_gas_therm",
                  "value" : 0
               },
               {
                  "name" : "natural_gas_heating_therm",
                  "value" : 0
               },
               {
                  "name" : "natural_gas_central_system_heating_therm",
                  "value" : 0
               },
               {
                  "name" : "natural_gas_water_systems_therm",
                  "value" : 0
               },
               {
                  "name" : "total_site_fuel_oil_mbtu",
                  "value" : 0
               },
               {
                  "name" : "fuel_oil_heating_mbtu",
                  "value" : 0
               },
               {
                  "name" : "fuel_oil_central_system_heating_mbtu",
                  "value" : 0
               },
               {
                  "name" : "fuel_oil_water_systems_mbtu",
                  "value" : 0
               },
               {
                  "name" : "total_site_propane_mbtu",
                  "value" : 0
               },
               {
                  "name" : "propane_heating_mbtu",
                  "value" : 0
               },
               {
                  "name" : "propane_central_system_heating_mbtu",
                  "value" : 0
               },
               {
                  "name" : "propane_water_systems_mbtu",
                  "value" : 0
               },
               {
                  "name" : "total_site_wood_mbtu",
                  "value" : 0
               },
               {
                  "name" : "wood_heating_mbtu",
                  "value" : 0
               },
               {
                  "name" : "total_site_energy_mbtu",
                  "value" : 1399.4725759834171
               },
               {
                  "name" : "hours_heating_setpoint_not_met",
                  "value" : 148.75
               },
               {
                  "name" : "hours_cooling_setpoint_not_met",
                  "value" : 0
               },
               {
                  "name" : "hvac_cooling_capacity_w",
                  "value" : 2102831.7378785424
               },
               {
                  "name" : "hvac_heating_capacity_w",
                  "value" : 158553.0585266019
               },
               {
                  "name" : "hvac_heating_supp_capacity_w",
                  "value" : 0
               },
               {
                  "name" : "electricity_refrigerator_kwh",
                  "value" : 23454.539329729101
               },
               {
                  "name" : "electricity_clothes_washer_kwh",
                  "value" : 857.75237230591483
               },
               {
                  "name" : "electricity_clothes_dryer_kwh",
                  "value" : 19336.370141682277
               },
               {
                  "name" : "natural_gas_clothes_dryer_therm",
                  "value" : 0
               },
               {
                  "name" : "propane_clothes_dryer_mbtu",
                  "value" : 0
               },
               {
                  "name" : "electricity_cooking_range_kwh",
                  "value" : 12257.877128161173
               },
               {
                  "name" : "natural_gas_cooking_range_therm",
                  "value" : 0
               },
               {
                  "name" : "propane_cooking_range_mbtu",
                  "value" : 0
               },
               {
                  "name" : "electricity_dishwasher_kwh",
                  "value" : 0
               },
               {
                  "name" : "electricity_plug_loads_kwh",
                  "value" : 40277.822222213785
               },
               {
                  "name" : "electricity_house_fan_kwh",
                  "value" : 0
               },
               {
                  "name" : "electricity_range_fan_kwh",
                  "value" : 591.36632117870442
               },
               {
                  "name" : "electricity_bath_fan_kwh",
                  "value" : 443.52474088402113
               },
               {
                  "name" : "electricity_ceiling_fan_kwh",
                  "value" : 6650.7209205717718
               },
               {
                  "name" : "electricity_extra_refrigerator_kwh",
                  "value" : 0
               },
               {
                  "name" : "electricity_freezer_kwh",
                  "value" : 0
               },
               {
                  "name" : "electricity_pool_heater_kwh",
                  "value" : 0
               },
               {
                  "name" : "natural_gas_pool_heater_therm",
                  "value" : 0
               },
               {
                  "name" : "electricity_pool_pump_kwh",
                  "value" : 0
               },
               {
                  "name" : "electricity_hot_tub_heater_kwh",
                  "value" : 0
               },
               {
                  "name" : "natural_gas_hot_tub_heater_therm",
                  "value" : 0
               },
               {
                  "name" : "electricity_hot_tub_pump_kwh",
                  "value" : 0
               },
               {
                  "name" : "natural_gas_grill_therm",
                  "value" : 0
               },
               {
                  "name" : "natural_gas_lighting_therm",
                  "value" : 0
               },
               {
                  "name" : "natural_gas_fireplace_therm",
                  "value" : 0
               },
               {
                  "name" : "electricity_well_pump_kwh",
                  "value" : 0
               },
               {
                  "name" : "electricity_recirc_pump_kwh",
                  "value" : 0
               },
               {
                  "name" : "electricity_vehicle_kwh",
                  "value" : 0
               },
               {
                  "name" : "weight",
                  "value" : 1
               },
               {
                  "name" : "wall_area_above_grade_conditioned_ft_2",
                  "value" : 21724.439999999999
               },
               {
                  "name" : "wall_area_above_grade_exterior_ft_2",
                  "value" : 22446.75
               },
               {
                  "name" : "wall_area_below_grade_ft_2",
                  "value" : 0
               },
               {
                  "name" : "floor_area_conditioned_ft_2",
                  "value" : 61452
               },
               {
                  "name" : "floor_area_attic_ft_2",
                  "value" : 0
               },
               {
                  "name" : "floor_area_lighting_ft_2",
                  "value" : 61452
               },
               {
                  "name" : "roof_area_ft_2",
                  "value" : 34799.330000000002
               },
               {
                  "name" : "window_area_ft_2",
                  "value" : 6517.3299999999999
               },
               {
                  "name" : "door_area_ft_2",
                  "value" : 200
               },
               {
                  "name" : "duct_surface_area_ft_2",
                  "value" : 19664.639999999999
               },
               {
                  "name" : "size_heating_system_kbtu_h",
                  "value" : 541.00999999999999
               },
               {
                  "name" : "size_cooling_system_kbtu_h",
                  "value" : 7175.1599999999999
               },
               {
                  "name" : "size_water_heater_gal",
                  "value" : 1620
               },
               {
                  "name" : "upgrade_name",
                  "value" : "Upgrade1"
               },
               {
                  "name" : "upgrade_cost_usd",
                  "value" : 0
               }
            ],
            "step_warnings" : []
         }
      },
      {
         "arguments" : {
            "include_enduse_subcategories" : true,
            "output_variables" : "",
            "reporting_frequency" : "Timestep"
         },
         "measure_dir_name" : "TimeseriesCSVExport",
         "result" : {
            "completed_at" : "20201008T033632Z",
            "measure_class_name" : "TimeseriesCSVExport",
            "measure_display_name" : "Timeseries CSV Export",
            "measure_name" : "timeseries_csv_export",
            "measure_taxonomy" : "Reporting.QAQC",
            "measure_type" : "ReportingMeasure",
            "measure_uid" : "2a3442c1-944d-4e91-9e11-11e0cf368c64",
            "measure_version_id" : "0fc3273d-0302-4739-a8d4-3a5678c5c254",
            "measure_version_modified" : "20200626T154739Z",
            "measure_xml_checksum" : "15BF4E57",
            "started_at" : "20201008T033514Z",
            "stderr" : "",
            "stdout" : "",
            "step_errors" : [],
            "step_files" : [],
            "step_info" : [
               "Exporting total_site_electricity_kwh.",
               "Exporting electricity_heating_kwh.",
               "Exporting electricity_central_system_heating_kwh.",
               "Exporting electricity_cooling_kwh.",
               "Exporting electricity_central_system_cooling_kwh.",
               "Exporting electricity_interior_lighting_kwh.",
               "Exporting electricity_exterior_lighting_kwh.",
               "Exporting electricity_exterior_holiday_lighting_kwh.",
               "Exporting electricity_garage_lighting_kwh.",
               "Exporting electricity_refrigerator_kwh.",
               "Exporting electricity_clothes_washer_kwh.",
               "Exporting electricity_clothes_dryer_kwh.",
               "Exporting electricity_cooking_range_kwh.",
               "Exporting electricity_dishwasher_kwh.",
               "Exporting electricity_plug_loads_kwh.",
               "Exporting electricity_house_fan_kwh.",
               "Exporting electricity_range_fan_kwh.",
               "Exporting electricity_bath_fan_kwh.",
               "Exporting electricity_ceiling_fan_kwh.",
               "Exporting electricity_extra_refrigerator_kwh.",
               "Exporting electricity_freezer_kwh.",
               "Exporting electricity_pool_heater_kwh.",
               "Exporting electricity_pool_pump_kwh.",
               "Exporting electricity_hot_tub_heater_kwh.",
               "Exporting electricity_hot_tub_pump_kwh.",
               "Exporting electricity_well_pump_kwh.",
               "Exporting electricity_recirc_pump_kwh.",
               "Exporting electricity_vehicle_kwh.",
               "Exporting electricity_fans_heating_kwh.",
               "Exporting electricity_fans_cooling_kwh.",
               "Exporting electricity_pumps_heating_kwh.",
               "Exporting electricity_central_system_pumps_heating_kwh.",
               "Exporting electricity_pumps_cooling_kwh.",
               "Exporting electricity_central_system_pumps_cooling_kwh.",
               "Exporting electricity_water_systems_kwh.",
               "Exporting electricity_pv_kwh.",
               "Exporting total_site_natural_gas_therm.",
               "Exporting natural_gas_heating_therm.",
               "Exporting natural_gas_central_system_heating_therm.",
               "Exporting natural_gas_clothes_dryer_therm.",
               "Exporting natural_gas_cooking_range_therm.",
               "Exporting natural_gas_pool_heater_therm.",
               "Exporting natural_gas_hot_tub_heater_therm.",
               "Exporting natural_gas_grill_therm.",
               "Exporting natural_gas_lighting_therm.",
               "Exporting natural_gas_fireplace_therm.",
               "Exporting natural_gas_water_systems_therm.",
               "Exporting total_site_fuel_oil_mbtu.",
               "Exporting fuel_oil_heating_mbtu.",
               "Exporting fuel_oil_central_system_heating_mbtu.",
               "Exporting fuel_oil_water_systems_mbtu.",
               "Exporting total_site_propane_mbtu.",
               "Exporting propane_heating_mbtu.",
               "Exporting propane_central_system_heating_mbtu.",
               "Exporting propane_clothes_dryer_mbtu.",
               "Exporting propane_cooking_range_mbtu.",
               "Exporting propane_water_systems_mbtu.",
               "Exporting total_site_wood_mbtu.",
               "Exporting wood_heating_mbtu.",
               "Exporting total_site_energy_mbtu."
            ],
            "step_result" : "Success",
            "step_values" : [
               {
                  "name" : "reporting_frequency",
                  "value" : "Timestep"
               },
               {
                  "name" : "include_enduse_subcategories",
                  "value" : true
               },
               {
                  "name" : "output_variables",
                  "value" : ""
               }
            ],
            "step_warnings" : []
         }
      },
      {
         "arguments" : {},
         "measure_dir_name" : "ServerDirectoryCleanup",
         "result" : {
            "completed_at" : "20201008T033633Z",
            "measure_class_name" : "ServerDirectoryCleanup",
            "measure_display_name" : "Server Directory Cleanup",
            "measure_name" : "server_directory_cleanup",
            "measure_taxonomy" : "Calibration",
            "measure_type" : "ReportingMeasure",
            "measure_uid" : "ec7d04ad-0b7b-495b-825a-e1b6d28d1d3f",
            "measure_version_id" : "c9dc043c-2ea2-4960-b281-37b9cb49c491",
            "measure_version_modified" : "20190409T200600Z",
            "measure_xml_checksum" : "5F1EDF75",
            "started_at" : "20201008T033632Z",
            "stderr" : "",
            "stdout" : "",
            "step_errors" : [],
            "step_files" : [],
            "step_final_condition" : "The following files were in the local run directory following the execution of this measure: ., .., in.epw, measures.osw, enduse_timeseries.csv, eplustbl.htm, measures-upgrade.osw, 000_ResidentialSimulationControls, stdout-expandobject, run.log, eplusout.rdd, 003_TimeseriesCSVExport, eplusout.mtr, eplusout.err, schedules.csv, 002_ApplyUpgrade, 004_TimeseriesCSVExport, stdout-energyplus, 003_ServerDirectoryCleanup, in.idf, eplusout.end, 001_BuildExistingModel, 005_ServerDirectoryCleanup, started.job, 003_SimulationOutputReport, sqlite.err, measure_attributes.json, eplusout.mtd.",
            "step_info" : [
               "Deleted ./../eplusout.sql from the run directory.",
               "Deleted ./../eplusout.audit from the run directory.",
               "Deleted ./../in.osm from the run directory.",
               "Deleted ./../eplusout.bnd from the run directory.",
               "Deleted ./../eplusout.eio from the run directory.",
               "Deleted ./../eplusout.shd from the run directory.",
               "Deleted ./../eplusout.mdd from the run directory.",
               "Deleted ./../eplusout.eso from the run directory.",
               "Deleted ./../pre-preprocess.idf from the run directory."
            ],
            "step_initial_condition" : "The following files were in the local run directory prior to the execution of this measure: ., .., in.osm, in.epw, eplusout.shd, measures.osw, enduse_timeseries.csv, eplustbl.htm, measures-upgrade.osw, 000_ResidentialSimulationControls, stdout-expandobject, eplusout.mdd, eplusout.audit, run.log, eplusout.rdd, eplusout.eio, 003_TimeseriesCSVExport, eplusout.mtr, eplusout.err, schedules.csv, 002_ApplyUpgrade, 004_TimeseriesCSVExport, stdout-energyplus, eplusout.eso, 003_ServerDirectoryCleanup, in.idf, eplusout.end, 001_BuildExistingModel, eplusout.sql, 005_ServerDirectoryCleanup, started.job, 003_SimulationOutputReport, sqlite.err, measure_attributes.json, eplusout.bnd, eplusout.mtd, pre-preprocess.idf.",
            "step_result" : "Success",
            "step_values" : [],
            "step_warnings" : []
         }
      }
   ],
   "updated_at" : "20201008T033633Z"
}
