Program Version,EnergyPlus, Version 9.2.0-921312fa1d, YMD=2020.10.08 03:29,
   ************* Note that the following warning(s) may/will occur if you have not enclosed your zone completely.
   ** Warning ** Entered Zone Volumes differ from calculated zone volume(s).
   **   ~~~   ** ...use Output:Diagnostics,DisplayExtraWarnings; to show more details on individual zones.
   ** Warning ** CalculateZoneVolume: 1 zone is not fully enclosed. For more details use:  Output:Diagnostics,DisplayExtrawarnings; 
   ** Warning ** CheckUsedConstructions: There are 1 nominally unused constructions in input.
   **   ~~~   ** For explicit details on each unused construction, use Output:Diagnostics,DisplayExtraWarnings;
   ** Warning ** The Standard Ratings is calculated for Coil:Cooling:DX:SingleSpeed = RES AC COOLING COIL but not at the AHRI test condition due to curve out of bound.
   **   ~~~   **  Review the Standard Ratings calculations in the Engineering Reference for this coil type. Also, use Output:Diagnostics, DisplayExtraWarnings for further guidance.
   ** Warning ** The Standard Ratings is calculated for Coil:Cooling:DX:SingleSpeed = RES AC|UNIT 10 COOLING COIL but not at the AHRI test condition due to curve out of bound.
   **   ~~~   **  Review the Standard Ratings calculations in the Engineering Reference for this coil type. Also, use Output:Diagnostics, DisplayExtraWarnings for further guidance.
   ** Warning ** The Standard Ratings is calculated for Coil:Cooling:DX:SingleSpeed = RES AC|UNIT 11 COOLING COIL but not at the AHRI test condition due to curve out of bound.
   **   ~~~   **  Review the Standard Ratings calculations in the Engineering Reference for this coil type. Also, use Output:Diagnostics, DisplayExtraWarnings for further guidance.
   ** Warning ** The Standard Ratings is calculated for Coil:Cooling:DX:SingleSpeed = RES AC|UNIT 12 COOLING COIL but not at the AHRI test condition due to curve out of bound.
   **   ~~~   **  Review the Standard Ratings calculations in the Engineering Reference for this coil type. Also, use Output:Diagnostics, DisplayExtraWarnings for further guidance.
   ** Warning ** The Standard Ratings is calculated for Coil:Cooling:DX:SingleSpeed = RES AC|UNIT 13 COOLING COIL but not at the AHRI test condition due to curve out of bound.
   **   ~~~   **  Review the Standard Ratings calculations in the Engineering Reference for this coil type. Also, use Output:Diagnostics, DisplayExtraWarnings for further guidance.
   ** Warning ** The Standard Ratings is calculated for Coil:Cooling:DX:SingleSpeed = RES AC|UNIT 14 COOLING COIL but not at the AHRI test condition due to curve out of bound.
   **   ~~~   **  Review the Standard Ratings calculations in the Engineering Reference for this coil type. Also, use Output:Diagnostics, DisplayExtraWarnings for further guidance.
   ** Warning ** The Standard Ratings is calculated for Coil:Cooling:DX:SingleSpeed = RES AC|UNIT 15 COOLING COIL but not at the AHRI test condition due to curve out of bound.
   **   ~~~   **  Review the Standard Ratings calculations in the Engineering Reference for this coil type. Also, use Output:Diagnostics, DisplayExtraWarnings for further guidance.
   ** Warning ** The Standard Ratings is calculated for Coil:Cooling:DX:SingleSpeed = RES AC|UNIT 16 COOLING COIL but not at the AHRI test condition due to curve out of bound.
   **   ~~~   **  Review the Standard Ratings calculations in the Engineering Reference for this coil type. Also, use Output:Diagnostics, DisplayExtraWarnings for further guidance.
   ** Warning ** The Standard Ratings is calculated for Coil:Cooling:DX:SingleSpeed = RES AC|UNIT 17 COOLING COIL but not at the AHRI test condition due to curve out of bound.
   **   ~~~   **  Review the Standard Ratings calculations in the Engineering Reference for this coil type. Also, use Output:Diagnostics, DisplayExtraWarnings for further guidance.
   ** Warning ** The Standard Ratings is calculated for Coil:Cooling:DX:SingleSpeed = RES AC|UNIT 18 COOLING COIL but not at the AHRI test condition due to curve out of bound.
   **   ~~~   **  Review the Standard Ratings calculations in the Engineering Reference for this coil type. Also, use Output:Diagnostics, DisplayExtraWarnings for further guidance.
   ** Warning ** The Standard Ratings is calculated for Coil:Cooling:DX:SingleSpeed = RES AC|UNIT 2 COOLING COIL but not at the AHRI test condition due to curve out of bound.
   **   ~~~   **  Review the Standard Ratings calculations in the Engineering Reference for this coil type. Also, use Output:Diagnostics, DisplayExtraWarnings for further guidance.
   ** Warning ** The Standard Ratings is calculated for Coil:Cooling:DX:SingleSpeed = RES AC|UNIT 3 COOLING COIL but not at the AHRI test condition due to curve out of bound.
   **   ~~~   **  Review the Standard Ratings calculations in the Engineering Reference for this coil type. Also, use Output:Diagnostics, DisplayExtraWarnings for further guidance.
   ** Warning ** The Standard Ratings is calculated for Coil:Cooling:DX:SingleSpeed = RES AC|UNIT 4 COOLING COIL but not at the AHRI test condition due to curve out of bound.
   **   ~~~   **  Review the Standard Ratings calculations in the Engineering Reference for this coil type. Also, use Output:Diagnostics, DisplayExtraWarnings for further guidance.
   ** Warning ** The Standard Ratings is calculated for Coil:Cooling:DX:SingleSpeed = RES AC|UNIT 5 COOLING COIL but not at the AHRI test condition due to curve out of bound.
   **   ~~~   **  Review the Standard Ratings calculations in the Engineering Reference for this coil type. Also, use Output:Diagnostics, DisplayExtraWarnings for further guidance.
   ** Warning ** The Standard Ratings is calculated for Coil:Cooling:DX:SingleSpeed = RES AC|UNIT 6 COOLING COIL but not at the AHRI test condition due to curve out of bound.
   **   ~~~   **  Review the Standard Ratings calculations in the Engineering Reference for this coil type. Also, use Output:Diagnostics, DisplayExtraWarnings for further guidance.
   ** Warning ** The Standard Ratings is calculated for Coil:Cooling:DX:SingleSpeed = RES AC|UNIT 7 COOLING COIL but not at the AHRI test condition due to curve out of bound.
   **   ~~~   **  Review the Standard Ratings calculations in the Engineering Reference for this coil type. Also, use Output:Diagnostics, DisplayExtraWarnings for further guidance.
   ** Warning ** The Standard Ratings is calculated for Coil:Cooling:DX:SingleSpeed = RES AC|UNIT 8 COOLING COIL but not at the AHRI test condition due to curve out of bound.
   **   ~~~   **  Review the Standard Ratings calculations in the Engineering Reference for this coil type. Also, use Output:Diagnostics, DisplayExtraWarnings for further guidance.
   ** Warning ** The Standard Ratings is calculated for Coil:Cooling:DX:SingleSpeed = RES AC|UNIT 9 COOLING COIL but not at the AHRI test condition due to curve out of bound.
   **   ~~~   **  Review the Standard Ratings calculations in the Engineering Reference for this coil type. Also, use Output:Diagnostics, DisplayExtraWarnings for further guidance.
   ** Warning ** Check input. Pump nominal power or motor efficiency is set to 0, for pump=PUMP VARIABLE SPEED 1
   ** Warning ** Check input. Pump nominal power or motor efficiency is set to 0, for pump=PUMP VARIABLE SPEED 10
   ** Warning ** Check input. Pump nominal power or motor efficiency is set to 0, for pump=PUMP VARIABLE SPEED 11
   ** Warning ** Check input. Pump nominal power or motor efficiency is set to 0, for pump=PUMP VARIABLE SPEED 12
   ** Warning ** Check input. Pump nominal power or motor efficiency is set to 0, for pump=PUMP VARIABLE SPEED 13
   ** Warning ** Check input. Pump nominal power or motor efficiency is set to 0, for pump=PUMP VARIABLE SPEED 14
   ** Warning ** Check input. Pump nominal power or motor efficiency is set to 0, for pump=PUMP VARIABLE SPEED 15
   ** Warning ** Check input. Pump nominal power or motor efficiency is set to 0, for pump=PUMP VARIABLE SPEED 16
   ** Warning ** Check input. Pump nominal power or motor efficiency is set to 0, for pump=PUMP VARIABLE SPEED 17
   ** Warning ** Check input. Pump nominal power or motor efficiency is set to 0, for pump=PUMP VARIABLE SPEED 18
   ** Warning ** Check input. Pump nominal power or motor efficiency is set to 0, for pump=PUMP VARIABLE SPEED 2
   ** Warning ** Check input. Pump nominal power or motor efficiency is set to 0, for pump=PUMP VARIABLE SPEED 3
   ** Warning ** Check input. Pump nominal power or motor efficiency is set to 0, for pump=PUMP VARIABLE SPEED 4
   ** Warning ** Check input. Pump nominal power or motor efficiency is set to 0, for pump=PUMP VARIABLE SPEED 5
   ** Warning ** Check input. Pump nominal power or motor efficiency is set to 0, for pump=PUMP VARIABLE SPEED 6
   ** Warning ** Check input. Pump nominal power or motor efficiency is set to 0, for pump=PUMP VARIABLE SPEED 7
   ** Warning ** Check input. Pump nominal power or motor efficiency is set to 0, for pump=PUMP VARIABLE SPEED 8
   ** Warning ** Check input. Pump nominal power or motor efficiency is set to 0, for pump=PUMP VARIABLE SPEED 9
   ** Warning ** Meter:Custom="UNIT 1:ELECTRICITYHEATING", invalid Output Variable or Meter Name="HEATING COIL DEFROST ELECTRIC ENERGY".
   **   ~~~   ** ...will not be shown with the Meter results.
   ** Warning ** Meter:Custom="UNIT 1:ELECTRICITYHEATING", invalid Output Variable or Meter Name="HEATING COIL CRANKCASE HEATER ELECTRIC ENERGY".
   **   ~~~   ** ...will not be shown with the Meter results.
   ** Warning ** Meter:Custom="UNIT 1:ELECTRICITYCOOLING", invalid Output Variable or Meter Name="UNITARY SYSTEM COOLING ANCILLARY ELECTRIC ENERGY".
   **   ~~~   ** ...will not be shown with the Meter results.
   ** Warning ** Meter:Custom="UNIT 2:ELECTRICITYHEATING", invalid Output Variable or Meter Name="HEATING COIL DEFROST ELECTRIC ENERGY".
   **   ~~~   ** ...will not be shown with the Meter results.
   ** Warning ** Meter:Custom="UNIT 2:ELECTRICITYHEATING", invalid Output Variable or Meter Name="HEATING COIL CRANKCASE HEATER ELECTRIC ENERGY".
   **   ~~~   ** ...will not be shown with the Meter results.
   ** Warning ** Meter:Custom="UNIT 2:ELECTRICITYCOOLING", invalid Output Variable or Meter Name="UNITARY SYSTEM COOLING ANCILLARY ELECTRIC ENERGY".
   **   ~~~   ** ...will not be shown with the Meter results.
   ** Warning ** Meter:Custom="UNIT 3:ELECTRICITYHEATING", invalid Output Variable or Meter Name="HEATING COIL DEFROST ELECTRIC ENERGY".
   **   ~~~   ** ...will not be shown with the Meter results.
   ** Warning ** Meter:Custom="UNIT 3:ELECTRICITYHEATING", invalid Output Variable or Meter Name="HEATING COIL CRANKCASE HEATER ELECTRIC ENERGY".
   **   ~~~   ** ...will not be shown with the Meter results.
   ** Warning ** Meter:Custom="UNIT 3:ELECTRICITYCOOLING", invalid Output Variable or Meter Name="UNITARY SYSTEM COOLING ANCILLARY ELECTRIC ENERGY".
   **   ~~~   ** ...will not be shown with the Meter results.
   ** Warning ** Meter:Custom="UNIT 4:ELECTRICITYHEATING", invalid Output Variable or Meter Name="HEATING COIL DEFROST ELECTRIC ENERGY".
   **   ~~~   ** ...will not be shown with the Meter results.
   ** Warning ** Meter:Custom="UNIT 4:ELECTRICITYHEATING", invalid Output Variable or Meter Name="HEATING COIL CRANKCASE HEATER ELECTRIC ENERGY".
   **   ~~~   ** ...will not be shown with the Meter results.
   ** Warning ** Meter:Custom="UNIT 4:ELECTRICITYCOOLING", invalid Output Variable or Meter Name="UNITARY SYSTEM COOLING ANCILLARY ELECTRIC ENERGY".
   **   ~~~   ** ...will not be shown with the Meter results.
   ** Warning ** Meter:Custom="UNIT 5:ELECTRICITYHEATING", invalid Output Variable or Meter Name="HEATING COIL DEFROST ELECTRIC ENERGY".
   **   ~~~   ** ...will not be shown with the Meter results.
   ** Warning ** Meter:Custom="UNIT 5:ELECTRICITYHEATING", invalid Output Variable or Meter Name="HEATING COIL CRANKCASE HEATER ELECTRIC ENERGY".
   **   ~~~   ** ...will not be shown with the Meter results.
   ** Warning ** Meter:Custom="UNIT 5:ELECTRICITYCOOLING", invalid Output Variable or Meter Name="UNITARY SYSTEM COOLING ANCILLARY ELECTRIC ENERGY".
   **   ~~~   ** ...will not be shown with the Meter results.
   ** Warning ** Meter:Custom="UNIT 6:ELECTRICITYHEATING", invalid Output Variable or Meter Name="HEATING COIL DEFROST ELECTRIC ENERGY".
   **   ~~~   ** ...will not be shown with the Meter results.
   ** Warning ** Meter:Custom="UNIT 6:ELECTRICITYHEATING", invalid Output Variable or Meter Name="HEATING COIL CRANKCASE HEATER ELECTRIC ENERGY".
   **   ~~~   ** ...will not be shown with the Meter results.
   ** Warning ** Meter:Custom="UNIT 6:ELECTRICITYCOOLING", invalid Output Variable or Meter Name="UNITARY SYSTEM COOLING ANCILLARY ELECTRIC ENERGY".
   **   ~~~   ** ...will not be shown with the Meter results.
   ** Warning ** Meter:Custom="UNIT 7:ELECTRICITYHEATING", invalid Output Variable or Meter Name="HEATING COIL DEFROST ELECTRIC ENERGY".
   **   ~~~   ** ...will not be shown with the Meter results.
   ** Warning ** Meter:Custom="UNIT 7:ELECTRICITYHEATING", invalid Output Variable or Meter Name="HEATING COIL CRANKCASE HEATER ELECTRIC ENERGY".
   **   ~~~   ** ...will not be shown with the Meter results.
   ** Warning ** Meter:Custom="UNIT 7:ELECTRICITYCOOLING", invalid Output Variable or Meter Name="UNITARY SYSTEM COOLING ANCILLARY ELECTRIC ENERGY".
   **   ~~~   ** ...will not be shown with the Meter results.
   ** Warning ** Meter:Custom="UNIT 8:ELECTRICITYHEATING", invalid Output Variable or Meter Name="HEATING COIL DEFROST ELECTRIC ENERGY".
   **   ~~~   ** ...will not be shown with the Meter results.
   ** Warning ** Meter:Custom="UNIT 8:ELECTRICITYHEATING", invalid Output Variable or Meter Name="HEATING COIL CRANKCASE HEATER ELECTRIC ENERGY".
   **   ~~~   ** ...will not be shown with the Meter results.
   ** Warning ** Meter:Custom="UNIT 8:ELECTRICITYCOOLING", invalid Output Variable or Meter Name="UNITARY SYSTEM COOLING ANCILLARY ELECTRIC ENERGY".
   **   ~~~   ** ...will not be shown with the Meter results.
   ** Warning ** Meter:Custom="UNIT 9:ELECTRICITYHEATING", invalid Output Variable or Meter Name="HEATING COIL DEFROST ELECTRIC ENERGY".
   **   ~~~   ** ...will not be shown with the Meter results.
   ** Warning ** Meter:Custom="UNIT 9:ELECTRICITYHEATING", invalid Output Variable or Meter Name="HEATING COIL CRANKCASE HEATER ELECTRIC ENERGY".
   **   ~~~   ** ...will not be shown with the Meter results.
   ** Warning ** Meter:Custom="UNIT 9:ELECTRICITYCOOLING", invalid Output Variable or Meter Name="UNITARY SYSTEM COOLING ANCILLARY ELECTRIC ENERGY".
   **   ~~~   ** ...will not be shown with the Meter results.
   ** Warning ** Meter:Custom="UNIT 10:ELECTRICITYHEATING", invalid Output Variable or Meter Name="HEATING COIL DEFROST ELECTRIC ENERGY".
   **   ~~~   ** ...will not be shown with the Meter results.
   ** Warning ** Meter:Custom="UNIT 10:ELECTRICITYHEATING", invalid Output Variable or Meter Name="HEATING COIL CRANKCASE HEATER ELECTRIC ENERGY".
   **   ~~~   ** ...will not be shown with the Meter results.
   ** Warning ** Meter:Custom="UNIT 10:ELECTRICITYCOOLING", invalid Output Variable or Meter Name="UNITARY SYSTEM COOLING ANCILLARY ELECTRIC ENERGY".
   **   ~~~   ** ...will not be shown with the Meter results.
   ** Warning ** Meter:Custom="UNIT 11:ELECTRICITYHEATING", invalid Output Variable or Meter Name="HEATING COIL DEFROST ELECTRIC ENERGY".
   **   ~~~   ** ...will not be shown with the Meter results.
   ** Warning ** Meter:Custom="UNIT 11:ELECTRICITYHEATING", invalid Output Variable or Meter Name="HEATING COIL CRANKCASE HEATER ELECTRIC ENERGY".
   **   ~~~   ** ...will not be shown with the Meter results.
   ** Warning ** Meter:Custom="UNIT 11:ELECTRICITYCOOLING", invalid Output Variable or Meter Name="UNITARY SYSTEM COOLING ANCILLARY ELECTRIC ENERGY".
   **   ~~~   ** ...will not be shown with the Meter results.
   ** Warning ** Meter:Custom="UNIT 12:ELECTRICITYHEATING", invalid Output Variable or Meter Name="HEATING COIL DEFROST ELECTRIC ENERGY".
   **   ~~~   ** ...will not be shown with the Meter results.
   ** Warning ** Meter:Custom="UNIT 12:ELECTRICITYHEATING", invalid Output Variable or Meter Name="HEATING COIL CRANKCASE HEATER ELECTRIC ENERGY".
   **   ~~~   ** ...will not be shown with the Meter results.
   ** Warning ** Meter:Custom="UNIT 12:ELECTRICITYCOOLING", invalid Output Variable or Meter Name="UNITARY SYSTEM COOLING ANCILLARY ELECTRIC ENERGY".
   **   ~~~   ** ...will not be shown with the Meter results.
   ** Warning ** Meter:Custom="UNIT 13:ELECTRICITYHEATING", invalid Output Variable or Meter Name="HEATING COIL DEFROST ELECTRIC ENERGY".
   **   ~~~   ** ...will not be shown with the Meter results.
   ** Warning ** Meter:Custom="UNIT 13:ELECTRICITYHEATING", invalid Output Variable or Meter Name="HEATING COIL CRANKCASE HEATER ELECTRIC ENERGY".
   **   ~~~   ** ...will not be shown with the Meter results.
   ** Warning ** Meter:Custom="UNIT 13:ELECTRICITYCOOLING", invalid Output Variable or Meter Name="UNITARY SYSTEM COOLING ANCILLARY ELECTRIC ENERGY".
   **   ~~~   ** ...will not be shown with the Meter results.
   ** Warning ** Meter:Custom="UNIT 14:ELECTRICITYHEATING", invalid Output Variable or Meter Name="HEATING COIL DEFROST ELECTRIC ENERGY".
   **   ~~~   ** ...will not be shown with the Meter results.
   ** Warning ** Meter:Custom="UNIT 14:ELECTRICITYHEATING", invalid Output Variable or Meter Name="HEATING COIL CRANKCASE HEATER ELECTRIC ENERGY".
   **   ~~~   ** ...will not be shown with the Meter results.
   ** Warning ** Meter:Custom="UNIT 14:ELECTRICITYCOOLING", invalid Output Variable or Meter Name="UNITARY SYSTEM COOLING ANCILLARY ELECTRIC ENERGY".
   **   ~~~   ** ...will not be shown with the Meter results.
   ** Warning ** Meter:Custom="UNIT 15:ELECTRICITYHEATING", invalid Output Variable or Meter Name="HEATING COIL DEFROST ELECTRIC ENERGY".
   **   ~~~   ** ...will not be shown with the Meter results.
   ** Warning ** Meter:Custom="UNIT 15:ELECTRICITYHEATING", invalid Output Variable or Meter Name="HEATING COIL CRANKCASE HEATER ELECTRIC ENERGY".
   **   ~~~   ** ...will not be shown with the Meter results.
   ** Warning ** Meter:Custom="UNIT 15:ELECTRICITYCOOLING", invalid Output Variable or Meter Name="UNITARY SYSTEM COOLING ANCILLARY ELECTRIC ENERGY".
   **   ~~~   ** ...will not be shown with the Meter results.
   ** Warning ** Meter:Custom="UNIT 16:ELECTRICITYHEATING", invalid Output Variable or Meter Name="HEATING COIL DEFROST ELECTRIC ENERGY".
   **   ~~~   ** ...will not be shown with the Meter results.
   ** Warning ** Meter:Custom="UNIT 16:ELECTRICITYHEATING", invalid Output Variable or Meter Name="HEATING COIL CRANKCASE HEATER ELECTRIC ENERGY".
   **   ~~~   ** ...will not be shown with the Meter results.
   ** Warning ** Meter:Custom="UNIT 16:ELECTRICITYCOOLING", invalid Output Variable or Meter Name="UNITARY SYSTEM COOLING ANCILLARY ELECTRIC ENERGY".
   **   ~~~   ** ...will not be shown with the Meter results.
   ** Warning ** Meter:Custom="UNIT 17:ELECTRICITYHEATING", invalid Output Variable or Meter Name="HEATING COIL DEFROST ELECTRIC ENERGY".
   **   ~~~   ** ...will not be shown with the Meter results.
   ** Warning ** Meter:Custom="UNIT 17:ELECTRICITYHEATING", invalid Output Variable or Meter Name="HEATING COIL CRANKCASE HEATER ELECTRIC ENERGY".
   **   ~~~   ** ...will not be shown with the Meter results.
   ** Warning ** Meter:Custom="UNIT 17:ELECTRICITYCOOLING", invalid Output Variable or Meter Name="UNITARY SYSTEM COOLING ANCILLARY ELECTRIC ENERGY".
   **   ~~~   ** ...will not be shown with the Meter results.
   ** Warning ** Meter:Custom="UNIT 18:ELECTRICITYHEATING", invalid Output Variable or Meter Name="HEATING COIL DEFROST ELECTRIC ENERGY".
   **   ~~~   ** ...will not be shown with the Meter results.
   ** Warning ** Meter:Custom="UNIT 18:ELECTRICITYHEATING", invalid Output Variable or Meter Name="HEATING COIL CRANKCASE HEATER ELECTRIC ENERGY".
   **   ~~~   ** ...will not be shown with the Meter results.
   ** Warning ** Meter:Custom="UNIT 18:ELECTRICITYCOOLING", invalid Output Variable or Meter Name="UNITARY SYSTEM COOLING ANCILLARY ELECTRIC ENERGY".
   **   ~~~   ** ...will not be shown with the Meter results.
   ** Warning ** Output:Meter: invalid Key Name="DISTRICTCOOLING:FACILITY" - not found.
   ** Warning ** Output:Meter: invalid Key Name="DISTRICTHEATING:FACILITY" - not found.
   ** Warning ** Output:Meter:MeterFileOnly requested for "Electricity:Facility" (TimeStep), already on "Output:Meter". Will report to both eplusout.eso and eplusout.mtr
   ************* Testing Individual Branch Integrity
   ************* All Branches passed integrity testing
   ************* Testing Individual Supply Air Path Integrity
   ************* All Supply Air Paths passed integrity testing
   ************* Testing Individual Return Air Path Integrity
   ************* All Return Air Paths passed integrity testing
   ************* No node connection errors were found.
   ************* Beginning Simulation
   ** Warning ** Processing Monthly Tabular Reports: Variable names not valid for this simulation
   **   ~~~   ** ...use Output:Diagnostics,DisplayExtraWarnings; to show more details on individual variables.
   ** Warning ** CalcDoe2DXCoil: Coil:Cooling:DX:SingleSpeed "RES AC|UNIT 10 COOLING COIL" - Air-cooled condenser inlet dry-bulb temperature below 0 C. Outdoor dry-bulb temperature = -1.25
   **   ~~~   **  ... Occurrence info = RUN PERIOD 1, 01/01 17:00 - 17:15
   **   ~~~   ** ... Operation at low ambient temperatures may require special performance curves.
   ** Warning ** CalcDoe2DXCoil: Coil:Cooling:DX:SingleSpeed "RES AC|UNIT 9 COOLING COIL" - Air-cooled condenser inlet dry-bulb temperature below 0 C. Outdoor dry-bulb temperature = -1.25
   **   ~~~   **  ... Occurrence info = RUN PERIOD 1, 01/01 17:00 - 17:15
   **   ~~~   ** ... Operation at low ambient temperatures may require special performance curves.
   ** Warning ** CalcDoe2DXCoil: Coil:Cooling:DX:SingleSpeed "RES AC|UNIT 15 COOLING COIL" - Air-cooled condenser inlet dry-bulb temperature below 0 C. Outdoor dry-bulb temperature = -1.70
   **   ~~~   **  ... Occurrence info = RUN PERIOD 1, 01/01 17:45 - 18:00
   **   ~~~   ** ... Operation at low ambient temperatures may require special performance curves.
   ** Warning ** CalcDoe2DXCoil: Coil:Cooling:DX:SingleSpeed "RES AC|UNIT 16 COOLING COIL" - Air-cooled condenser inlet dry-bulb temperature below 0 C. Outdoor dry-bulb temperature = -1.70
   **   ~~~   **  ... Occurrence info = RUN PERIOD 1, 01/01 17:45 - 18:00
   **   ~~~   ** ... Operation at low ambient temperatures may require special performance curves.
   ** Warning ** CalcDoe2DXCoil: Coil:Cooling:DX:SingleSpeed "RES AC|UNIT 3 COOLING COIL" - Air-cooled condenser inlet dry-bulb temperature below 0 C. Outdoor dry-bulb temperature = -1.70
   **   ~~~   **  ... Occurrence info = RUN PERIOD 1, 01/01 17:45 - 18:00
   **   ~~~   ** ... Operation at low ambient temperatures may require special performance curves.
   ** Warning ** CalcDoe2DXCoil: Coil:Cooling:DX:SingleSpeed "RES AC|UNIT 4 COOLING COIL" - Air-cooled condenser inlet dry-bulb temperature below 0 C. Outdoor dry-bulb temperature = -1.70
   **   ~~~   **  ... Occurrence info = RUN PERIOD 1, 01/01 17:45 - 18:00
   **   ~~~   ** ... Operation at low ambient temperatures may require special performance curves.
   ** Warning ** SimHVAC: Maximum iterations (20) exceeded for all HVAC loops, at RUN PERIOD 1, 01/01 18:00 - 18:15
   **   ~~~   ** The solution for one or more of the Air Loop HVAC systems did not appear to converge
   **   ~~~   ** ...use Output:Diagnostics,DisplayExtraWarnings; to show more details on each max iteration exceeded.
   ** Warning ** SimHVAC: Maximum iterations (20) exceeded for all HVAC loops, at RUN PERIOD 1, 01/02 06:30 - 06:45
   **   ~~~   ** The solution for one or more of the Air Loop HVAC systems did not appear to converge
   ** Warning ** SimHVAC: Maximum iterations (20) exceeded for all HVAC loops, at RUN PERIOD 1, 01/04 09:00 - 09:15
   **   ~~~   ** The solution for one or more of the Air Loop HVAC systems did not appear to converge
   ** Warning ** SimHVAC: Maximum iterations (20) exceeded for all HVAC loops, at RUN PERIOD 1, 01/05 12:45 - 13:00
   **   ~~~   ** The solution for one or more of the Air Loop HVAC systems did not appear to converge
   ** Warning ** SimHVAC: Maximum iterations (20) exceeded for all HVAC loops, at RUN PERIOD 1, 01/05 13:00 - 13:15
   **   ~~~   ** The solution for one or more of the Air Loop HVAC systems did not appear to converge
   ** Warning ** SimHVAC: Maximum iterations (20) exceeded for all HVAC loops, at RUN PERIOD 1, 01/05 14:00 - 14:15
   **   ~~~   ** The solution for one or more of the Air Loop HVAC systems did not appear to converge
   ** Warning ** SimHVAC: Maximum iterations (20) exceeded for all HVAC loops, at RUN PERIOD 1, 01/09 18:15 - 18:30
   **   ~~~   ** The solution for one or more of the Air Loop HVAC systems did not appear to converge
   ** Warning ** SimHVAC: Maximum iterations (20) exceeded for all HVAC loops, at RUN PERIOD 1, 01/09 20:00 - 20:15
   **   ~~~   ** The solution for one or more of the Air Loop HVAC systems did not appear to converge
   ** Warning ** SimHVAC: Maximum iterations (20) exceeded for all HVAC loops, at RUN PERIOD 1, 01/09 21:45 - 22:00
   **   ~~~   ** The solution for one or more of the Air Loop HVAC systems did not appear to converge
   ** Warning ** SimHVAC: Maximum iterations (20) exceeded for all HVAC loops, at RUN PERIOD 1, 01/10 17:30 - 17:45
   **   ~~~   ** The solution for one or more of the Air Loop HVAC systems did not appear to converge
   ** Warning ** SimHVAC: Maximum iterations (20) exceeded for all HVAC loops, at RUN PERIOD 1, 01/11 12:00 - 12:15
   **   ~~~   ** The solution for one or more of the Air Loop HVAC systems did not appear to converge
   ** Warning ** SimHVAC: Maximum iterations (20) exceeded for all HVAC loops, at RUN PERIOD 1, 01/12 08:00 - 08:15
   **   ~~~   ** The solution for one or more of the Air Loop HVAC systems did not appear to converge
   ** Warning ** SimHVAC: Maximum iterations (20) exceeded for all HVAC loops, at RUN PERIOD 1, 01/14 13:30 - 13:45
   **   ~~~   ** The solution for one or more of the Air Loop HVAC systems did not appear to converge
   ** Warning ** SimHVAC: Maximum iterations (20) exceeded for all HVAC loops, at RUN PERIOD 1, 01/15 15:45 - 16:00
   **   ~~~   ** The solution for one or more of the Air Loop HVAC systems did not appear to converge
   ** Warning ** GetCurrentScheduleValue: Schedule="LIGHTING_EXTERIOR" is a Schedule:File
   **   ~~~   ** ...Use of Schedule:File when DaylightSavingTime is in effect is not recommended.
   **   ~~~   ** ...1) Remove RunperiodControl:DaylightSavingTime object or remove DST period from Weather File.
   **   ~~~   ** ...2) Configure other schedules and Schedule:File to account for occupant behavior during DST.
   **   ~~~   ** ...   If you have already done this, you can ignore this message.
   **   ~~~   ** ...When active, DaylightSavingTime will shift all scheduled items by one hour, retaining the same day type as the original.
   ** Warning ** The resource referenced by LifeCycleCost:UsePriceEscalation= "U.S. AVG  COMMERCIAL-ELECTRICITY" has no energy cost. 
   **   ~~~   ** ... It is likely that the wrong resource is used. The resource should match the meter used in Utility:Tariff.
   ** Warning ** The resource referenced by LifeCycleCost:UsePriceEscalation= "U.S. AVG  COMMERCIAL-DISTILLATE OIL" has no energy cost. 
   **   ~~~   ** ... It is likely that the wrong resource is used. The resource should match the meter used in Utility:Tariff.
   ** Warning ** The resource referenced by LifeCycleCost:UsePriceEscalation= "U.S. AVG  COMMERCIAL-RESIDUAL OIL" has no energy cost. 
   **   ~~~   ** ... It is likely that the wrong resource is used. The resource should match the meter used in Utility:Tariff.
   ** Warning ** The resource referenced by LifeCycleCost:UsePriceEscalation= "U.S. AVG  COMMERCIAL-NATURAL GAS" has no energy cost. 
   **   ~~~   ** ... It is likely that the wrong resource is used. The resource should match the meter used in Utility:Tariff.
   ** Warning ** The resource referenced by LifeCycleCost:UsePriceEscalation= "U.S. AVG  COMMERCIAL-COAL" has no energy cost. 
   **   ~~~   ** ... It is likely that the wrong resource is used. The resource should match the meter used in Utility:Tariff.
   ************* Simulation Error Summary *************
   ************* There are 2 unused schedules in input.
   ************* There are 44 unused week schedules in input.
   ************* There are 26 unused day schedules in input.
   ************* Use Output:Diagnostics,DisplayUnusedSchedules; to see them.
   *************
   ************* ===== Recurring Error Summary =====
   ************* The following recurring error messages occurred.
   *************
   *************  ** Warning ** CalcDoe2DXCoil: Coil:Cooling:DX:SingleSpeed="RES AC|UNIT 10 COOLING COIL" - Low condenser dry-bulb temperature error continues...
   *************  **   ~~~   **   This error occurred 508 total times;
   *************  **   ~~~   **   during Warmup 0 times;
   *************  **   ~~~   **   during Sizing 0 times.
   *************  **   ~~~   **   Max=-0.1 [C]  Min=-16.7 [C]
   *************
   *************  ** Warning ** CalcDoe2DXCoil: Coil:Cooling:DX:SingleSpeed="RES AC|UNIT 9 COOLING COIL" - Low condenser dry-bulb temperature error continues...
   *************  **   ~~~   **   This error occurred 127 total times;
   *************  **   ~~~   **   during Warmup 0 times;
   *************  **   ~~~   **   during Sizing 0 times.
   *************  **   ~~~   **   Max=-0.1 [C]  Min=-15.85 [C]
   *************
   *************  ** Warning ** CalcDoe2DXCoil: Coil:Cooling:DX:SingleSpeed="RES AC|UNIT 15 COOLING COIL" - Low condenser dry-bulb temperature error continues...
   *************  **   ~~~   **   This error occurred 55 total times;
   *************  **   ~~~   **   during Warmup 0 times;
   *************  **   ~~~   **   during Sizing 0 times.
   *************  **   ~~~   **   Max=-0.15 [C]  Min=-12.375 [C]
   *************
   *************  ** Warning ** CalcDoe2DXCoil: Coil:Cooling:DX:SingleSpeed="RES AC|UNIT 16 COOLING COIL" - Low condenser dry-bulb temperature error continues...
   *************  **   ~~~   **   This error occurred 142 total times;
   *************  **   ~~~   **   during Warmup 0 times;
   *************  **   ~~~   **   during Sizing 0 times.
   *************  **   ~~~   **   Max=-0.15 [C]  Min=-12.375 [C]
   *************
   *************  ** Warning ** CalcDoe2DXCoil: Coil:Cooling:DX:SingleSpeed="RES AC|UNIT 3 COOLING COIL" - Low condenser dry-bulb temperature error continues...
   *************  **   ~~~   **   This error occurred 70 total times;
   *************  **   ~~~   **   during Warmup 0 times;
   *************  **   ~~~   **   during Sizing 0 times.
   *************  **   ~~~   **   Max=-0.15 [C]  Min=-12.375 [C]
   *************
   *************  ** Warning ** CalcDoe2DXCoil: Coil:Cooling:DX:SingleSpeed="RES AC|UNIT 4 COOLING COIL" - Low condenser dry-bulb temperature error continues...
   *************  **   ~~~   **   This error occurred 311 total times;
   *************  **   ~~~   **   during Warmup 0 times;
   *************  **   ~~~   **   during Sizing 0 times.
   *************  **   ~~~   **   Max=-0.15 [C]  Min=-14.75 [C]
   *************
   *************  ** Warning ** SimHVAC: Exceeding Maximum iterations for all HVAC loops, during RUN PERIOD 1 continues
   *************  **   ~~~   **   This error occurred 1726 total times;
   *************  **   ~~~   **   during Warmup 0 times;
   *************  **   ~~~   **   during Sizing 0 times.
   *************
   *************
   ************* ===== Final Error Summary =====
   ************* The following error categories occurred.  Consider correcting or noting.
   ************* Nominally Unused Constructions
   ************* ..The nominally unused constructions warning is provided to alert you to potential conditions that can cause
   ************* ..extra time during simulation. Each construction is calculated by the algorithm indicated in the HeatBalanceAlgorithm
   ************* ..object. You may remove the constructions indicated (when you use the DisplayExtraWarnings option).
   *************
   ************* EnergyPlus Warmup Error Summary. During Warmup: 0 Warning; 0 Severe Errors.
   ************* EnergyPlus Sizing Error Summary. During Sizing: 0 Warning; 0 Severe Errors.
   ************* EnergyPlus Completed Successfully-- 3056 Warning; 0 Severe Errors; Elapsed Time=00hr 05min 28.11sec
