{
   "completed_at" : "20200407T154500Z",
   "completed_status" : "Success",
   "created_at" : "2020-04-07T09:39:29.423950",
   "current_step" : 5,
   "eplusout_err" : "Program Version,EnergyPlus, Version 9.2.0-921312fa1d, YMD=2020.04.07 15:43,\n   ** Warning ** GetSurfaceData: Very small surface area[3.99308E-004], Surface=SURFACE SURFACE_10_-_WINDOW_1_RIGHT\n   ** Warning ** GetSurfaceData: Very small surface area[4.98018E-004], Surface=SURFACE SURFACE_13_-_DOOR_FRONT\n   ** Warning ** GetSurfaceData: Very small surface area[5.04464E-004], Surface=SURFACE SURFACE_13_-_WINDOW_1_FRONT\n   ** Warning ** GetSurfaceData: Very small surface area[4.86176E-004], Surface=SURFACE SURFACE_8_-_WINDOW_2_LEFT\n   ** Warning ** GetSurfaceData: Very small surface area[6.82010E-004], Surface=SURFACE SURFACE_9_-_WINDOW_3_BACK\n   ************* Note that the following warning(s) may/will occur if you have not enclosed your zone completely.\n   ** Warning ** Entered Zone Volumes differ from calculated zone volume(s).\n   **   ~~~   ** ...use Output:Diagnostics,DisplayExtraWarnings; to show more details on individual zones.\n   ** Warning ** CalculateZoneVolume: 3 zones are not fully enclosed. For more details use:  Output:Diagnostics,DisplayExtrawarnings; \n   ** Warning ** GetInputViewFactors: ComplexFenestrationProperty:SolarAbsorbedLayers=\"LIVING SPACE\", not enough values.\n   **   ~~~   ** ...Number of input values [148] is less than the required number=[361] Missing surface pairs will have a zero view factor.\n   ** Warning ** GetInputViewFactors: Output:DaylightFactors=\"LIVING SPACE\", not enough values.\n   **   ~~~   ** ...Number of input values [148] is less than the required number=[361] Missing surface pairs will have a zero view factor.\n   ** Warning ** GetDXCoils: Coil:Heating:DX:SingleSpeed=\"ASHP HTG COIL\" curve values\n   **   ~~~   ** ... Defrost Energy Input Ratio Function of Temperature Curve Name = DEFROSTEIR output is not equal to 1.0 (+ or - 10%) at rated conditions.\n   **   ~~~   ** ... Curve output at rated conditions = 0.152\n   ** Warning ** The Standard Ratings is calculated for Coil:Cooling:DX:SingleSpeed = ASHP CLG COIL but not at the AHRI test condition due to curve out of bound.\n   **   ~~~   **  Review the Standard Ratings calculations in the Engineering Reference for this coil type. Also, use Output:Diagnostics, DisplayExtraWarnings for further guidance.\n   ** Warning ** Check input. Pump nominal power or motor efficiency is set to 0, for pump=PUMP VARIABLE SPEED 1\n   ** Warning ** Output:Meter: invalid Key Name=\"GAS:FACILITY\" - not found.\n   ** Warning ** Output:Meter: invalid Key Name=\"FUELOIL#1:FACILITY\" - not found.\n   ** Warning ** Output:Meter: invalid Key Name=\"PROPANE:FACILITY\" - not found.\n   ** Warning ** Output:Meter: invalid Key Name=\"OTHERFUEL1:FACILITY\" - not found.\n   ** Warning ** Output:Meter: invalid Key Name=\"OTHERFUEL2:FACILITY\" - not found.\n   ** Warning ** Output:Meter: invalid Key Name=\"DISHWASHER:INTERIOREQUIPMENT:ELECTRICITY\" - not found.\n   ** Warning ** Output:Meter: invalid Key Name=\"MISC TV:INTERIOREQUIPMENT:ELECTRICITY\" - not found.\n   ** Warning ** Output:Meter: invalid Key Name=\"MISC PLUG LOADS:INTERIOREQUIPMENT:ELECTRICITY\" - not found.\n   ** Warning ** Output:Meter: invalid Key Name=\"ELECTRICITYPRODUCED:FACILITY\" - not found.\n   ** Warning ** Output:Meter: invalid Key Name=\"CLOTHES DRYER:INTERIOREQUIPMENT:GAS\" - not found.\n   ** Warning ** Output:Meter: invalid Key Name=\"COOKING RANGE:INTERIOREQUIPMENT:GAS\" - not found.\n   ** Warning ** Output:Meter: invalid Key Name=\"CLOTHES DRYER:INTERIOREQUIPMENT:FUELOIL#1\" - not found.\n   ** Warning ** Output:Meter: invalid Key Name=\"COOKING RANGE:INTERIOREQUIPMENT:FUELOIL#1\" - not found.\n   ** Warning ** Output:Meter: invalid Key Name=\"CLOTHES DRYER:INTERIOREQUIPMENT:PROPANE\" - not found.\n   ** Warning ** Output:Meter: invalid Key Name=\"COOKING RANGE:INTERIOREQUIPMENT:PROPANE\" - not found.\n   ** Warning ** Output:Meter: invalid Key Name=\"CLOTHES DRYER:INTERIOREQUIPMENT:OTHERFUEL1\" - not found.\n   ** Warning ** Output:Meter: invalid Key Name=\"COOKING RANGE:INTERIOREQUIPMENT:OTHERFUEL1\" - not found.\n   ** Warning ** Output:Meter: invalid Key Name=\"DISHWASHER:INTERIOREQUIPMENT:ELECTRICITY\" - not found.\n   ** Warning ** Output:Meter: invalid Key Name=\"MISC TV:INTERIOREQUIPMENT:ELECTRICITY\" - not found.\n   ** Warning ** Output:Meter: invalid Key Name=\"MISC PLUG LOADS:INTERIOREQUIPMENT:ELECTRICITY\" - not found.\n   ** Warning ** Output:Meter: invalid Key Name=\"ELECTRICITYPRODUCED:FACILITY\" - not found.\n   ** Warning ** Output:Meter: invalid Key Name=\"CLOTHES DRYER:INTERIOREQUIPMENT:GAS\" - not found.\n   ** Warning ** Output:Meter: invalid Key Name=\"COOKING RANGE:INTERIOREQUIPMENT:GAS\" - not found.\n   ** Warning ** Output:Meter: invalid Key Name=\"CLOTHES DRYER:INTERIOREQUIPMENT:FUELOIL#1\" - not found.\n   ** Warning ** Output:Meter: invalid Key Name=\"COOKING RANGE:INTERIOREQUIPMENT:FUELOIL#1\" - not found.\n   ** Warning ** Output:Meter: invalid Key Name=\"CLOTHES DRYER:INTERIOREQUIPMENT:PROPANE\" - not found.\n   ** Warning ** Output:Meter: invalid Key Name=\"COOKING RANGE:INTERIOREQUIPMENT:PROPANE\" - not found.\n   ** Warning ** Output:Meter: invalid Key Name=\"CLOTHES DRYER:INTERIOREQUIPMENT:OTHERFUEL1\" - not found.\n   ** Warning ** Output:Meter: invalid Key Name=\"COOKING RANGE:INTERIOREQUIPMENT:OTHERFUEL1\" - not found.\n   ** Warning ** Output:Meter: invalid Key Name=\"GAS:FACILITY\" - not found.\n   ** Warning ** Output:Meter:MeterFileOnly: invalid Key Name=\"GAS:FACILITY\" - not found.\n   ** Warning ** Output:Meter:MeterFileOnly requested for \"Electricity:Facility\" (TimeStep), already on \"Output:Meter\". Will report to both eplusout.eso and eplusout.mtr\n   ************* Testing Individual Branch Integrity\n   ************* All Branches passed integrity testing\n   ************* Testing Individual Supply Air Path Integrity\n   ************* All Supply Air Paths passed integrity testing\n   ************* Testing Individual Return Air Path Integrity\n   ************* All Return Air Paths passed integrity testing\n   ************* No node connection errors were found.\n   ************* Beginning Simulation\n   ** Warning ** Processing Monthly Tabular Reports: Variable names not valid for this simulation\n   **   ~~~   ** ...use Output:Diagnostics,DisplayExtraWarnings; to show more details on individual variables.\n   ** Warning ** SimHVAC: Maximum iterations (20) exceeded for all HVAC loops, at RUN PERIOD 1, 01/07 17:40 - 17:50\n   **   ~~~   ** The solution for one or more of the Air Loop HVAC systems did not appear to converge\n   **   ~~~   ** ...use Output:Diagnostics,DisplayExtraWarnings; to show more details on each max iteration exceeded.\n   ** Warning ** SimHVAC: Maximum iterations (20) exceeded for all HVAC loops, at RUN PERIOD 1, 01/24 17:40 - 17:50\n   **   ~~~   ** The solution for one or more of the Air Loop HVAC systems did not appear to converge\n   ** Warning ** SimHVAC: Maximum iterations (20) exceeded for all HVAC loops, at RUN PERIOD 1, 01/24 17:50 - 18:00\n   **   ~~~   ** The solution for one or more of the Air Loop HVAC systems did not appear to converge\n   ** Warning ** SimHVAC: Maximum iterations (20) exceeded for all HVAC loops, at RUN PERIOD 1, 01/24 18:30 - 18:40\n   **   ~~~   ** The solution for one or more of the Air Loop HVAC systems did not appear to converge\n   ** Warning ** SimHVAC: Maximum iterations (20) exceeded for all HVAC loops, at RUN PERIOD 1, 01/24 19:20 - 19:30\n   **   ~~~   ** The solution for one or more of the Air Loop HVAC systems did not appear to converge\n   ** Warning ** SimHVAC: Maximum iterations (20) exceeded for all HVAC loops, at RUN PERIOD 1, 01/29 11:50 - 12:00\n   **   ~~~   ** The solution for one or more of the Air Loop HVAC systems did not appear to converge\n   ** Warning ** SimHVAC: Maximum iterations (20) exceeded for all HVAC loops, at RUN PERIOD 1, 01/30 03:00 - 03:10\n   **   ~~~   ** The solution for one or more of the Air Loop HVAC systems did not appear to converge\n   ** Warning ** SimHVAC: Maximum iterations (20) exceeded for all HVAC loops, at RUN PERIOD 1, 02/16 15:30 - 15:40\n   **   ~~~   ** The solution for one or more of the Air Loop HVAC systems did not appear to converge\n   ** Warning ** SimHVAC: Maximum iterations (20) exceeded for all HVAC loops, at RUN PERIOD 1, 02/18 13:50 - 14:00\n   **   ~~~   ** The solution for one or more of the Air Loop HVAC systems did not appear to converge\n   ** Warning ** SimHVAC: Maximum iterations (20) exceeded for all HVAC loops, at RUN PERIOD 1, 02/20 12:00 - 12:10\n   **   ~~~   ** The solution for one or more of the Air Loop HVAC systems did not appear to converge\n   ** Warning ** SimHVAC: Maximum iterations (20) exceeded for all HVAC loops, at RUN PERIOD 1, 02/22 20:50 - 21:00\n   **   ~~~   ** The solution for one or more of the Air Loop HVAC systems did not appear to converge\n   ** Warning ** SimHVAC: Maximum iterations (20) exceeded for all HVAC loops, at RUN PERIOD 1, 02/24 13:00 - 13:10\n   **   ~~~   ** The solution for one or more of the Air Loop HVAC systems did not appear to converge\n   ** Warning ** SimHVAC: Maximum iterations (20) exceeded for all HVAC loops, at RUN PERIOD 1, 02/25 06:20 - 06:30\n   **   ~~~   ** The solution for one or more of the Air Loop HVAC systems did not appear to converge\n   ** Warning ** SimHVAC: Maximum iterations (20) exceeded for all HVAC loops, at RUN PERIOD 1, 02/26 13:10 - 13:20\n   **   ~~~   ** The solution for one or more of the Air Loop HVAC systems did not appear to converge\n   ** Warning ** CalcDoe2DXCoil: Coil:Cooling:DX:SingleSpeed=\"ASHP CLG COIL\" - Air volume flow rate per watt of rated total cooling capacity is out of range at 6.819E-005 m3/s/W.\n   **   ~~~   **  Environment=RUN PERIOD 1, at Simulation time=03/25 13:10 - 13:20\n   **   ~~~   ** Expected range for VolumeFlowPerRatedTotalCapacity=[2.684E-005--6.713E-005]\n   **   ~~~   ** Possible causes include inconsistent air flow rates in system components,\n   **   ~~~   ** or variable air volume [VAV] system using incorrect coil type.\n   ** Warning ** The resource referenced by LifeCycleCost:UsePriceEscalation= \"U.S. AVG  COMMERCIAL-ELECTRICITY\" has no energy cost. \n   **   ~~~   ** ... It is likely that the wrong resource is used. The resource should match the meter used in Utility:Tariff.\n   ** Warning ** The resource referenced by LifeCycleCost:UsePriceEscalation= \"U.S. AVG  COMMERCIAL-DISTILLATE OIL\" has no energy cost. \n   **   ~~~   ** ... It is likely that the wrong resource is used. The resource should match the meter used in Utility:Tariff.\n   ** Warning ** The resource referenced by LifeCycleCost:UsePriceEscalation= \"U.S. AVG  COMMERCIAL-RESIDUAL OIL\" has no energy cost. \n   **   ~~~   ** ... It is likely that the wrong resource is used. The resource should match the meter used in Utility:Tariff.\n   ** Warning ** The resource referenced by LifeCycleCost:UsePriceEscalation= \"U.S. AVG  COMMERCIAL-NATURAL GAS\" has no energy cost. \n   **   ~~~   ** ... It is likely that the wrong resource is used. The resource should match the meter used in Utility:Tariff.\n   ** Warning ** The resource referenced by LifeCycleCost:UsePriceEscalation= \"U.S. AVG  COMMERCIAL-COAL\" has no energy cost. \n   **   ~~~   ** ... It is likely that the wrong resource is used. The resource should match the meter used in Utility:Tariff.\n   ************* Simulation Error Summary *************\n   ** Warning ** The following Report Variables were requested but not generated -- check.rdd file\n   **   ~~~   ** Either the IDF did not contain these elements, the variable name is misspelled,\n   **   ~~~   ** or the requested variable is an advanced output which requires Output : Diagnostics, DisplayAdvancedReportVariables;\n   ************* Key=*, VarName=LOADS_HTG_ROOFS_ANNUAL_OUTVAR, Frequency=\n   ************* Key=*, VarName=LOADS_HTG_CEILINGS_ANNUAL_OUTVAR, Frequency=\n   ************* Key=*, VarName=LOADS_HTG_WALLS_ANNUAL_OUTVAR, Frequency=\n   ************* Key=*, VarName=LOADS_HTG_RIM_JOISTS_ANNUAL_OUTVAR, Frequency=\n   ************* Key=*, VarName=LOADS_HTG_FOUNDATION_WALLS_ANNUAL_OUTVAR, Frequency=\n   ************* Key=*, VarName=LOADS_HTG_DOORS_ANNUAL_OUTVAR, Frequency=\n   ************* Key=*, VarName=LOADS_HTG_WINDOWS_ANNUAL_OUTVAR, Frequency=\n   ************* Key=*, VarName=LOADS_HTG_SKYLIGHTS_ANNUAL_OUTVAR, Frequency=\n   ************* Key=*, VarName=LOADS_HTG_FLOORS_ANNUAL_OUTVAR, Frequency=\n   ************* Key=*, VarName=LOADS_HTG_SLABS_ANNUAL_OUTVAR, Frequency=\n   ************* Key=*, VarName=LOADS_HTG_INTERNAL_MASS_ANNUAL_OUTVAR, Frequency=\n   ************* Key=*, VarName=LOADS_HTG_INFIL_ANNUAL_OUTVAR, Frequency=\n   ************* Key=*, VarName=LOADS_HTG_NATVENT_ANNUAL_OUTVAR, Frequency=\n   ************* Key=*, VarName=LOADS_HTG_MECHVENT_ANNUAL_OUTVAR, Frequency=\n   ************* Key=*, VarName=LOADS_HTG_WHF_ANNUAL_OUTVAR, Frequency=\n   ************* Key=*, VarName=LOADS_HTG_DUCTS_ANNUAL_OUTVAR, Frequency=\n   ************* Key=*, VarName=LOADS_HTG_INTGAINS_ANNUAL_OUTVAR, Frequency=\n   ************* Key=*, VarName=LOADS_CLG_ROOFS_ANNUAL_OUTVAR, Frequency=\n   ************* Key=*, VarName=LOADS_CLG_CEILINGS_ANNUAL_OUTVAR, Frequency=\n   ************* Key=*, VarName=LOADS_CLG_WALLS_ANNUAL_OUTVAR, Frequency=\n   ************* Key=*, VarName=LOADS_CLG_RIM_JOISTS_ANNUAL_OUTVAR, Frequency=\n   ************* Key=*, VarName=LOADS_CLG_FOUNDATION_WALLS_ANNUAL_OUTVAR, Frequency=\n   ************* Key=*, VarName=LOADS_CLG_DOORS_ANNUAL_OUTVAR, Frequency=\n   ************* Key=*, VarName=LOADS_CLG_WINDOWS_ANNUAL_OUTVAR, Frequency=\n   ************* Key=*, VarName=LOADS_CLG_SKYLIGHTS_ANNUAL_OUTVAR, Frequency=\n   ************* Key=*, VarName=LOADS_CLG_FLOORS_ANNUAL_OUTVAR, Frequency=\n   ************* Key=*, VarName=LOADS_CLG_SLABS_ANNUAL_OUTVAR, Frequency=\n   ************* Key=*, VarName=LOADS_CLG_INTERNAL_MASS_ANNUAL_OUTVAR, Frequency=\n   ************* Key=*, VarName=LOADS_CLG_INFIL_ANNUAL_OUTVAR, Frequency=\n   ************* Key=*, VarName=LOADS_CLG_NATVENT_ANNUAL_OUTVAR, Frequency=\n   ************* Key=*, VarName=LOADS_CLG_MECHVENT_ANNUAL_OUTVAR, Frequency=\n   ************* Key=*, VarName=LOADS_CLG_WHF_ANNUAL_OUTVAR, Frequency=\n   ************* Key=*, VarName=LOADS_CLG_DUCTS_ANNUAL_OUTVAR, Frequency=\n   ************* Key=*, VarName=LOADS_CLG_INTGAINS_ANNUAL_OUTVAR, Frequency=\n   ************* Key=*, VarName=LOADS_HTG_TOT_ANNUAL_OUTVAR, Frequency=\n   ************* Key=*, VarName=LOADS_CLG_TOT_ANNUAL_OUTVAR, Frequency=\n   ************* Key=ashp backup htg coil, VarName=HEATING COIL CRANKCASE HEATER ELECTRIC ENERGY, Frequency=\n   ************* Key=ashp backup htg coil, VarName=HEATING COIL DEFROST ELECTRIC ENERGY, Frequency=\n   ************* Key=ashp clg coil, VarName=COOLING COIL CRANKCASE HEATER ELECTRIC ENERGY, Frequency=\n   ************* Key=water heater, VarName=WATER HEATER GAS ENERGY, Frequency=\n   ************* Key=water heater, VarName=WATER HEATER FUELOIL#1 ENERGY, Frequency=\n   ************* Key=water heater, VarName=WATER HEATER PROPANE ENERGY, Frequency=\n   ************* Key=water heater, VarName=WATER HEATER OTHERFUEL1 ENERGY, Frequency=\n   ************* Key=ashp backup htg coil, VarName=HEATING COIL CRANKCASE HEATER ELECTRIC ENERGY, Frequency=Hourly\n   ************* Key=ashp backup htg coil, VarName=HEATING COIL DEFROST ELECTRIC ENERGY, Frequency=Hourly\n   ************* Key=ashp clg coil, VarName=COOLING COIL CRANKCASE HEATER ELECTRIC ENERGY, Frequency=Hourly\n   ************* Key=water heater, VarName=WATER HEATER GAS ENERGY, Frequency=Hourly\n   ************* Key=water heater, VarName=WATER HEATER FUELOIL#1 ENERGY, Frequency=Hourly\n   ************* Key=water heater, VarName=WATER HEATER PROPANE ENERGY, Frequency=Hourly\n   ************* Key=water heater, VarName=WATER HEATER OTHERFUEL1 ENERGY, Frequency=Hourly\n   ************* There are 2 unused schedules in input.\n   ************* There are 4 unused week schedules in input.\n   ************* There are 5 unused day schedules in input.\n   ************* Use Output:Diagnostics,DisplayUnusedSchedules; to see them.\n   *************\n   ************* ===== Recurring Error Summary =====\n   ************* The following recurring error messages occurred.\n   *************\n   *************  ** Warning ** SimHVAC: Exceeding Maximum iterations for all HVAC loops, during RUN PERIOD 1 continues\n   *************  **   ~~~   **   This error occurred 63 total times;\n   *************  **   ~~~   **   during Warmup 0 times;\n   *************  **   ~~~   **   during Sizing 0 times.\n   *************\n   *************  ** Warning ** CalcDoe2DXCoil: Coil:Cooling:DX:SingleSpeed=\"ASHP CLG COIL\" - Air volume flow rate per watt of rated total cooling capacity is out of range error continues...\n   *************  **   ~~~   **   This error occurred 292810 total times;\n   *************  **   ~~~   **   during Warmup 0 times;\n   *************  **   ~~~   **   during Sizing 0 times.\n   *************  **   ~~~   **   Max=7.006137E-005  Min=6.752496E-005\n   *************\n   ************* EnergyPlus Warmup Error Summary. During Warmup: 0 Warning; 0 Severe Errors.\n   ************* EnergyPlus Sizing Error Summary. During Sizing: 0 Warning; 0 Severe Errors.\n   ************* EnergyPlus Completed Successfully-- 292938 Warning; 0 Severe Errors; Elapsed Time=00hr 01min 16.30sec\n",
   "file_paths" : [
      "/var/simdata/openstudio/generated_files",
      "./files",
      "./weather",
      "../../files",
      "../../weather",
      "./"
   ],
   "hash" : "5C85FE7B",
   "id" : "bldg0000004up01",
   "measure_paths" : [ "measures", "resources/hpxml-measures" ],
   "started_at" : "20200407T153944Z",
   "steps" : [
      {
         "arguments" : {
            "begin_day_of_month" : 1,
            "begin_month" : 1,
            "end_day_of_month" : 31,
            "end_month" : 12,
            "timesteps_per_hr" : 6
         },
         "measure_dir_name" : "ResidentialSimulationControls",
         "result" : {
            "completed_at" : "20200407T153945Z",
            "measure_class_name" : "ResidentialSimulationControls",
            "measure_display_name" : "Set Residential Simulation Controls",
            "measure_name" : "residential_simulation_controls",
            "measure_taxonomy" : "Whole Building.Space Types",
            "measure_type" : "ModelMeasure",
            "measure_uid" : "874f921e-8f3c-458a-a82f-01b7d51a547e",
            "measure_version_id" : "216217b4-1fc2-4ec5-a71f-9fa9b7458ab2",
            "measure_version_modified" : "20200406T190911Z",
            "measure_xml_checksum" : "2C38F48B",
            "started_at" : "20200407T153945Z",
            "stderr" : "",
            "stdout" : "",
            "step_errors" : [],
            "step_files" : [],
            "step_info" : [
               "Set the simulation timesteps per hour to 6.",
               "Set the run period begin and end month/day to 1/1 and 12/31, respectively.",
               "Set the calendar year to  and the start day of week to UseWeatherFile; if you are running with AMY, this will be overridden by the AMY year."
            ],
            "step_result" : "Success",
            "step_values" : [
               {
                  "name" : "timesteps_per_hr",
                  "value" : 6
               },
               {
                  "name" : "begin_month",
                  "value" : 1
               },
               {
                  "name" : "begin_day_of_month",
                  "value" : 1
               },
               {
                  "name" : "end_month",
                  "value" : 12
               },
               {
                  "name" : "end_day_of_month",
                  "value" : 31
               }
            ],
            "step_warnings" : []
         }
      },
      {
         "arguments" : {
            "building_unit_id" : 4,
            "sample_weight" : 27500000,
            "workflow_json" : "measure-info.json"
         },
         "measure_dir_name" : "BuildExistingModel",
         "result" : {
            "completed_at" : "20200407T154134Z",
            "measure_class_name" : "BuildExistingModel",
            "measure_display_name" : "Build Existing Model",
            "measure_name" : "build_existing_model",
            "measure_taxonomy" : "Whole Building.Space Types",
            "measure_type" : "ModelMeasure",
            "measure_uid" : "dedf59bb-3b88-4f16-8755-2c1ff5519cbf",
            "measure_version_id" : "5e994bac-f933-4c5e-9df0-0fc4ac6f96e7",
            "measure_version_modified" : "20200406T190911Z",
            "measure_xml_checksum" : "2C38F48B",
            "started_at" : "20200407T153945Z",
            "stderr" : "",
            "stdout" : "[openstudio.measure.OSRunner] <1> Cannot find current Workflow Step\n[openstudio.measure.OSRunner] <1> Cannot find current Workflow Step\n",
            "step_errors" : [],
            "step_files" : [],
            "step_info" : [
               "Assigning option 'Standard' for parameter 'HPXML'.",
               "Assigning option 'CR09' for parameter 'Location Region'.",
               "Assigning option 'TX_Houston-Bush.Intercontinental.AP.722430' for parameter 'Location'.",
               "Assigning option 'USA_TX_Houston-Bush.Intercontinental.AP.722430_TMY3.epw' for parameter 'Location Weather Filename'.",
               "Assigning option 'TMY3' for parameter 'Location Weather Year'.",
               "Assigning option '2000s' for parameter 'Vintage'.",
               "Assigning option '2000-09' for parameter 'Vintage ACS'.",
               "Assigning option 'Electricity' for parameter 'Heating Fuel'.",
               "Assigning option 'Medium' for parameter 'Usage Level'.",
               "Assigning option 'Single-Family Detached' for parameter 'Geometry Building Type RECS'.",
               "Assigning option 'Single-Family Detached' for parameter 'Geometry Building Type ACS'.",
               "Assigning option 'None' for parameter 'Geometry Building Number Units MF'.",
               "Assigning option 'None' for parameter 'Geometry Building Number Units SFA'.",
               "Assigning option '<5' for parameter 'Geometry Building Number Units HL'.",
               "Assigning option 'Slab' for parameter 'Geometry Foundation Type'.",
               "Assigning option 'Masonry' for parameter 'Geometry Wall Type'.",
               "Assigning option '1' for parameter 'Geometry Stories'.",
               "Assigning option '2 Car' for parameter 'Geometry Garage'.",
               "Assigning option '1500-2499' for parameter 'Geometry Floor Area Bin'.",
               "Assigning option '1500-1999' for parameter 'Geometry Floor Area'.",
               "Assigning option '3' for parameter 'Bedrooms'.",
               "Assigning option 'Double-Loaded Interior' for parameter 'Corridor'.",
               "Assigning option '2' for parameter 'Occupants'.",
               "Assigning option 'Northeast' for parameter 'Orientation'.",
               "Assigning option '2 ft' for parameter 'Eaves'.",
               "Assigning option '20 ft^2' for parameter 'Door Area'.",
               "Assigning option 'F12 B12 L12 R12' for parameter 'Window Areas'.",
               "Assigning option 'None' for parameter 'Overhangs'.",
               "Assigning option 'Left/Right at 15ft' for parameter 'Neighbors'.",
               "Assigning option 'R-30' for parameter 'Insulation Ceiling'.",
               "Assigning option 'None' for parameter 'Insulation Roof'.",
               "Assigning option 'No' for parameter 'Radiant Barrier'.",
               "Assigning option 'Asphalt Shingles, Medium' for parameter 'Roof Material Unfinished Attic'.",
               "Assigning option 'None' for parameter 'Roof Material Finished Roof'.",
               "Assigning option 'Uninsulated' for parameter 'Insulation Slab'.",
               "Assigning option 'None' for parameter 'Insulation Crawlspace'.",
               "Assigning option 'None' for parameter 'Insulation Unfinished Basement'.",
               "Assigning option 'None' for parameter 'Insulation Finished Basement'.",
               "Assigning option 'None' for parameter 'Insulation Pier Beam'.",
               "Assigning option 'CMU, 6-in Hollow, R-11' for parameter 'Insulation Wall'.",
               "Assigning option 'Summer = 0.7, Winter = 0.7' for parameter 'Interior Shading'.",
               "Assigning option '2+ Pane' for parameter 'Windows'.",
               "Assigning option 'Fiberglass' for parameter 'Doors'.",
               "Assigning option 'Electric Standard' for parameter 'Water Heater'.",
               "Assigning option '100% Usage' for parameter 'Hot Water Fixtures'.",
               "Assigning option 'Uninsulated, Standard' for parameter 'Hot Water Distribution'.",
               "Assigning option 'None' for parameter 'Solar Hot Water'.",
               "Assigning option 'Yes' for parameter 'HVAC System Is Heat Pump'.",
               "Assigning option 'ASHP, SEER 13, 7.7 HSPF' for parameter 'HVAC System Heat Pump'.",
               "Assigning option 'None' for parameter 'HVAC System Heating'.",
               "Assigning option 'None' for parameter 'HVAC System Cooling'.",
               "Assigning option 'Central' for parameter 'HVAC System Cooling Type'.",
               "Assigning option '70F' for parameter 'Heating Setpoint'.",
               "Assigning option '75F' for parameter 'Cooling Setpoint'.",
               "Assigning option 'No' for parameter 'Heating Setpoint Has Offset'.",
               "Assigning option 'No' for parameter 'Cooling Setpoint Has Offset'.",
               "Assigning option '0F' for parameter 'Heating Setpoint Offset Magnitude'.",
               "Assigning option '0F' for parameter 'Cooling Setpoint Offset Magnitude'.",
               "Assigning option 'None' for parameter 'Heating Setpoint Offset Period'.",
               "Assigning option 'None' for parameter 'Cooling Setpoint Offset Period'.",
               "Assigning option 'National Average' for parameter 'Ceiling Fan'.",
               "Assigning option 'None' for parameter 'Dehumidifier'.",
               "Assigning option 'EF 17.6' for parameter 'Refrigerator'.",
               "Assigning option 'National Average' for parameter 'Refrigeration Schedule'.",
               "Assigning option 'Electric, 100% Usage' for parameter 'Cooking Range'.",
               "Assigning option 'National Average' for parameter 'Cooking Range Schedule'.",
               "Assigning option 'None' for parameter 'Dishwasher'.",
               "Assigning option 'Yes' for parameter 'Clothes Washer Presence'.",
               "Assigning option 'EnergyStar, 100% Usage' for parameter 'Clothes Washer'.",
               "Assigning option 'Electric, 100% Usage' for parameter 'Clothes Dryer'.",
               "Assigning option '100% CFL' for parameter 'Lighting'.",
               "Assigning option '100% Usage' for parameter 'Lighting Interior Use'.",
               "Assigning option '100% Usage' for parameter 'Lighting Other Use'.",
               "Assigning option 'No Exterior Use' for parameter 'Holiday Lighting'.",
               "Assigning option '100%' for parameter 'Plug Loads'.",
               "Assigning option 'National Average' for parameter 'Plug Loads Schedule'.",
               "Assigning option 'None' for parameter 'Electric Vehicle'.",
               "Assigning option 'None' for parameter 'Misc Extra Refrigerator'.",
               "Assigning option 'None' for parameter 'Misc Freezer'.",
               "Assigning option 'None' for parameter 'Misc Gas Fireplace'.",
               "Assigning option 'None' for parameter 'Misc Gas Grill'.",
               "Assigning option 'None' for parameter 'Misc Gas Lighting'.",
               "Assigning option 'None' for parameter 'Misc Hot Tub Spa'.",
               "Assigning option 'None' for parameter 'Misc Pool'.",
               "Assigning option 'None' for parameter 'Misc Pool Heater'.",
               "Assigning option 'None' for parameter 'Misc Pool Pump'.",
               "Assigning option 'National Average' for parameter 'Misc Pool Schedule'.",
               "Assigning option 'None' for parameter 'Misc Well Pump'.",
               "Assigning option '20% Leakage, R-8' for parameter 'Ducts'.",
               "Assigning option '15 ACH50' for parameter 'Infiltration'.",
               "Assigning option 'Year-Round, 3 days/wk' for parameter 'Natural Ventilation'.",
               "Assigning option 'None' for parameter 'Mechanical Ventilation'.",
               "Assigning option 'Hour3' for parameter 'Bathroom Spot Vent Hour'.",
               "Assigning option 'Hour19' for parameter 'Range Spot Vent Hour'.",
               "Assigning option 'None' for parameter 'PV'.",
               "Assigning option 'Day2' for parameter 'Days Shifted'.",
               "Assigning option '0.13' for parameter 'Geometry Perimeter Footprint Ratio'.",
               "Assigning option 'CBSA Houston-The Woodlands-Sugar Land, TX' for parameter 'AHS Region'.",
               "Assigning option '2A' for parameter 'ASHRAE IECC Climate Zone 2004'.",
               "Assigning option 'TX' for parameter 'State'.",
               "Assigning option 'West South Central' for parameter 'Census Division'.",
               "Assigning option 'South' for parameter 'Census Region'.",
               "Assigning option 'ERCOT' for parameter 'ISO RTO Region'.",
               "Assigning option 'Hot-Humid' for parameter 'Building America Climate Zone'.",
               "Assigning option 'TX, Harris County' for parameter 'County'.",
               "Assigning option 'TX, 04604' for parameter 'PUMA'.",
               "Calling BuildResidentialHPXML measure with arguments:\nhpxml_path -> /var/simdata/openstudio/run/existing.xml \\nschedules_output_path -> ../schedules.csv \\nweather_dir -> ../../weather \\nweather_station_epw_filename -> USA_TX_Houston-Bush.Intercontinental.AP.722430_TMY3.epw \\ngeometry_unit_type -> single-family detached \\ngeometry_level -> Bottom \\ngeometry_horizontal_location -> Left \\ngeometry_wall_height -> 8 \\ngeometry_aspect_ratio -> 1.8 \\ngeometry_attic_type -> VentedAttic \\ngeometry_roof_type -> gable \\ngeometry_roof_pitch -> 6:12 \\ngeometry_num_bathrooms -> 1 \\ngeometry_inset_width -> 0 \\ngeometry_inset_depth -> 0 \\ngeometry_inset_position -> Right \\ngeometry_balcony_depth -> 0 \\ngeometry_foundation_type -> SlabOnGrade \\ngeometry_foundation_height -> 0 \\ngeometry_foundation_height_above_grade -> 0 \\ngeometry_num_floors_above_grade -> 1 \\ngeometry_garage_width -> 24 \\ngeometry_garage_depth -> 24 \\ngeometry_garage_protrusion -> 0.5 \\ngeometry_garage_position -> Right \\ngeometry_cfa -> 1690 \\ngeometry_num_bedrooms -> 3 \\ngeometry_corridor_position -> Double-Loaded Interior \\ngeometry_corridor_width -> 10 \\ngeometry_num_occupants -> 2 \\ngeometry_orientation -> 225 \\ngeometry_roof_structure -> truss, cantilever \\ngeometry_eaves_depth -> 2 \\ndoor_area -> 20 \\nwindow_front_wwr -> 0.12 \\nwindow_back_wwr -> 0.12 \\nwindow_left_wwr -> 0.12 \\nwindow_right_wwr -> 0.12 \\nwindow_area_front -> 0 \\nwindow_area_back -> 0 \\nwindow_area_left -> 0 \\nwindow_area_right -> 0 \\nwindow_aspect_ratio -> 1.333 \\nskylight_area_front -> 0 \\nskylight_area_back -> 0 \\nskylight_area_left -> 0 \\nskylight_area_right -> 0 \\noverhangs_front_depth -> 0 \\noverhangs_front_distance_to_top_of_window -> 0 \\noverhangs_back_depth -> 0 \\noverhangs_back_distance_to_top_of_window -> 0 \\noverhangs_left_depth -> 0 \\noverhangs_left_distance_to_top_of_window -> 0 \\noverhangs_right_depth -> 0 \\noverhangs_right_distance_to_top_of_window -> 0 \\nneighbor_front_distance -> 0 \\nneighbor_back_distance -> 0 \\nneighbor_left_distance -> 15 \\nneighbor_right_distance -> 15 \\nneighbor_front_height -> auto \\nneighbor_back_height -> auto \\nneighbor_left_height -> auto \\nneighbor_right_height -> auto \\nceiling_assembly_r -> 31.6 \\nroof_assembly_r -> 0 \\nroof_radiant_barrier -> false \\nroof_solar_absorptance -> 0.85 \\nroof_emittance -> 0.91 \\nslab_perimeter_insulation_r -> 0 \\nslab_perimeter_depth -> 0 \\nslab_under_insulation_r -> 0 \\nslab_under_width -> 0 \\nslab_carpet_fraction -> 0 \\nslab_carpet_r -> 0 \\nfloor_assembly_r -> 0 \\nfoundation_wall_insulation_r -> 0 \\nfoundation_wall_insulation_distance_to_top -> 0 \\nfoundation_wall_insulation_distance_to_bottom -> 0 \\nwall_type -> ConcreteMasonryUnit \\nwall_assembly_r -> 0 \\nwall_solar_absorptance -> 0.7 \\nwall_emittance -> 0.92 \\nwindow_interior_shading_summer -> 0.7 \\nwindow_interior_shading_winter -> 0.7 \\nwindow_ufactor -> 0.49 \\nwindow_shgc -> 0.56 \\nskylight_ufactor -> 0.49 \\nskylight_shgc -> 0.56 \\ndoor_rvalue -> 5 \\nwater_heater_type -> storage water heater \\nwater_heater_fuel_type -> electricity \\nwater_heater_location -> auto \\nwater_heater_tank_volume -> auto \\nwater_heater_heating_capacity -> 4.5 \\nwater_heater_efficiency_type -> EnergyFactor \\nwater_heater_efficiency -> 0.92 \\nwater_heater_recovery_efficiency -> 0.98 \\nwater_heater_standby_loss -> 0 \\nwater_heater_jacket_rvalue -> 0 \\nwater_heater_setpoint_temperature -> 125 \\nwater_fixtures_shower_low_flow -> false \\nwater_fixtures_sink_low_flow -> false \\ndhw_distribution_system_type -> Standard \\ndhw_distribution_standard_piping_length -> auto \\ndhw_distribution_recirc_control_type -> no control \\ndhw_distribution_recirc_piping_length -> 0 \\ndhw_distribution_recirc_branch_piping_length -> 0 \\ndhw_distribution_recirc_pump_power -> 0 \\ndhw_distribution_pipe_r -> 0 \\ndwhr_facilities_connected -> none \\ndwhr_equal_flow -> true \\ndwhr_efficiency -> 0.0 \\nsolar_thermal_system_type -> none \\nsolar_thermal_collector_area -> 40 \\nsolar_thermal_collector_loop_type -> liquid indirect \\nsolar_thermal_collector_type -> single glazing black \\nsolar_thermal_collector_azimuth -> 180 \\nsolar_thermal_collector_tilt -> roofpitch \\nsolar_thermal_collector_rated_optical_efficiency -> 0.77 \\nsolar_thermal_collector_rated_thermal_losses -> 0.793 \\nsolar_thermal_storage_volume -> auto \\nsolar_thermal_solar_fraction -> 0 \\nheat_pump_type -> air-to-air \\nheat_pump_heating_efficiency -> 7.7 \\nheat_pump_heating_capacity -> autosize \\nheat_pump_heating_capacity_17F -> autosize \\nheat_pump_fraction_heat_load_served -> 1 \\nheat_pump_cooling_efficiency -> 13 \\nheat_pump_cooling_capacity -> autosize \\nheat_pump_fraction_cool_load_served -> 1 \\nheat_pump_backup_fuel -> none \\nheat_pump_backup_heating_efficiency -> 1 \\nheat_pump_backup_heating_capacity -> autosize \\nheat_pump_mini_split_is_ducted -> false \\nheating_system_type -> none \\nheating_system_fuel -> natural gas \\nheating_system_heating_efficiency -> 0.78 \\nheating_system_heating_capacity -> autosize \\nheating_system_fraction_heat_load_served -> 1 \\nheating_system_electric_auxiliary_energy -> 0 \\ncooling_system_type -> none \\ncooling_system_cooling_efficiency -> 13 \\ncooling_system_cooling_capacity -> autosize \\ncooling_system_fraction_cool_load_served -> 1 \\ncooling_system_evap_cooler_is_ducted -> false \\nsetpoint_heating_temp -> 70 \\nsetpoint_heating_setback_temp -> 70 \\nsetpoint_heating_setback_hours_per_week -> 0 \\nsetpoint_heating_setback_start_hour -> 0 \\nsetpoint_cooling_temp -> 75 \\nsetpoint_cooling_setup_temp -> 75 \\nsetpoint_cooling_setup_hours_per_week -> 0 \\nsetpoint_cooling_setup_start_hour -> 0 \\nceiling_fan_efficiency -> 100 \\nceiling_fan_quantity -> 1 \\nceiling_fan_cooling_setpoint_temp_offset -> 0 \\nrefrigerator_present -> true \\nrefrigerator_location -> auto \\nrefrigerator_rated_annual_kwh -> 434 \\ncooking_range_present -> true \\ncooking_range_fuel_type -> electricity \\ncooking_range_is_induction -> false \\noven_present -> true \\noven_is_convection -> false \\ndishwasher_present -> false \\ndishwasher_efficiency_type -> RatedAnnualkWh \\ndishwasher_efficiency -> 290 \\ndishwasher_place_setting_capacity -> 12 \\nclothes_washer_present -> true \\nclothes_washer_location -> auto \\nclothes_washer_efficiency_type -> IntegratedModifiedEnergyFactor \\nclothes_washer_efficiency -> 2.07 \\nclothes_washer_rated_annual_kwh -> 123 \\nclothes_washer_label_electric_rate -> 0.1218 \\nclothes_washer_label_gas_rate -> 1.065 \\nclothes_washer_label_annual_gas_cost -> 9 \\nclothes_washer_capacity -> 3.68 \\nclothes_dryer_present -> true \\nclothes_dryer_location -> auto \\nclothes_dryer_fuel_type -> electricity \\nclothes_dryer_efficiency_type -> CombinedEnergyFactor \\nclothes_dryer_efficiency -> 2.70 \\nclothes_dryer_control_type -> timer \\nplug_loads_television_annual_kwh -> 0 \\nplug_loads_other_annual_kwh -> 0 \\nplug_loads_other_frac_sensible -> 0 \\nplug_loads_other_frac_latent -> 0 \\nplug_loads_schedule_values -> false \\nplug_loads_weekday_fractions -> 0.035, 0.033, 0.032, 0.031, 0.032, 0.033, 0.037, 0.042, 0.043, 0.043, 0.043, 0.044, 0.045, 0.045, 0.044, 0.046, 0.048, 0.052, 0.053, 0.05, 0.047, 0.045, 0.04, 0.036 \\nplug_loads_weekend_fractions -> 0.035, 0.033, 0.032, 0.031, 0.032, 0.033, 0.037, 0.042, 0.043, 0.043, 0.043, 0.044, 0.045, 0.045, 0.044, 0.046, 0.048, 0.052, 0.053, 0.05, 0.047, 0.045, 0.04, 0.036 \\nplug_loads_monthly_multipliers -> 1.248, 1.257, 0.993, 0.989, 0.993, 0.827, 0.821, 0.821, 0.827, 0.99, 0.987, 1.248 \\nducts_supply_leakage_units -> CFM25 \\nducts_return_leakage_units -> CFM25 \\nducts_supply_leakage_value -> 75 \\nducts_return_leakage_value -> 25 \\nducts_supply_insulation_r -> 8 \\nducts_return_insulation_r -> 8 \\nducts_supply_location -> auto \\nducts_return_location -> auto \\nducts_supply_surface_area -> 150 \\nducts_return_surface_area -> 50 \\nair_leakage_units -> ACH50 \\nair_leakage_value -> 15 \\nair_leakage_shelter_coefficient -> auto \\nwindow_fraction_of_operable_area -> 0.33 \\nmech_vent_fan_type -> none \\nmech_vent_flow_rate -> 110 \\nmech_vent_hours_in_operation -> 24 \\nmech_vent_total_recovery_efficiency_type -> Unadjusted \\nmech_vent_total_recovery_efficiency -> 0 \\nmech_vent_sensible_recovery_efficiency_type -> Unadjusted \\nmech_vent_sensible_recovery_efficiency -> 0 \\nmech_vent_fan_power -> 30 \\nwhole_house_fan_present -> false \\nwhole_house_fan_flow_rate -> 0 \\nwhole_house_fan_power -> 0 \\npv_system_module_type_1 -> none \\npv_system_location_1 -> roof \\npv_system_tracking_1 -> fixed \\npv_system_array_azimuth_1 -> 180 \\npv_system_array_tilt_1 -> roofpitch \\npv_system_max_power_output_1 -> 4000 \\npv_system_inverter_efficiency_1 -> 0.96 \\npv_system_system_losses_fraction_1 -> 0.14 \\npv_system_module_type_2 -> none \\npv_system_location_2 -> roof \\npv_system_tracking_2 -> fixed \\npv_system_array_azimuth_2 -> 180 \\npv_system_array_tilt_2 -> 20 \\npv_system_max_power_output_2 -> 4000 \\npv_system_inverter_efficiency_2 -> 0.96 \\npv_system_system_losses_fraction_2 -> 0.14 \\nsimulation_control_timestep -> 10 \\nsimulation_control_begin_month -> 1 \\nsimulation_control_begin_day_of_month -> 1 \\nsimulation_control_end_month -> 12 \\nsimulation_control_end_day_of_month -> 31",
               "Set garage space.",
               "Set living space.",
               "Set VentedAttic space.",
               "Set garage attic space.",
               "Added 3 window(s), totaling 34.2 ft^2, to Surface 13.",
               "Added 5 window(s), totaling 57.3 ft^2, to Surface 9.",
               "Added 3 window(s), totaling 31.8 ft^2, to Surface 8.",
               "Added 2 window(s), totaling 20.3 ft^2, to Surface 10.",
               "Added 20.0 ft^2 door.",
               "/var/simdata/openstudio/run/existing.xml: Validated against HPXML schema.",
               "/var/simdata/openstudio/run/existing.xml: Validated against HPXML EnergyPlus Use Case.",
               "Wrote file: /var/simdata/openstudio/run/existing.xml",
               "Calling HPXMLtoOpenStudio measure with arguments:\nhpxml_path -> /var/simdata/openstudio/run/existing.xml \\nweather_dir -> ../../weather",
               "EC_adj=1.0"
            ],
            "step_initial_condition" : "The building started with 0 spaces.",
            "step_result" : "Success",
            "step_values" : [
               {
                  "name" : "building_unit_id",
                  "value" : 4
               },
               {
                  "name" : "workflow_json",
                  "value" : "measure-info.json"
               },
               {
                  "name" : "sample_weight",
                  "value" : 27500000
               },
               {
                  "name" : "hpxml",
                  "value" : "Standard"
               },
               {
                  "name" : "location_region",
                  "value" : "CR09"
               },
               {
                  "name" : "location",
                  "value" : "TX_Houston-Bush.Intercontinental.AP.722430"
               },
               {
                  "name" : "location_weather_filename",
                  "value" : "USA_TX_Houston-Bush.Intercontinental.AP.722430_TMY3.epw"
               },
               {
                  "name" : "location_weather_year",
                  "value" : "TMY3"
               },
               {
                  "name" : "vintage",
                  "value" : "2000s"
               },
               {
                  "name" : "vintage_acs",
                  "value" : "2000-09"
               },
               {
                  "name" : "heating_fuel",
                  "value" : "Electricity"
               },
               {
                  "name" : "usage_level",
                  "value" : "Medium"
               },
               {
                  "name" : "geometry_building_type_recs",
                  "value" : "Single-Family Detached"
               },
               {
                  "name" : "geometry_building_type_acs",
                  "value" : "Single-Family Detached"
               },
               {
                  "name" : "geometry_building_number_units_mf",
                  "value" : "None"
               },
               {
                  "name" : "geometry_building_number_units_sfa",
                  "value" : "None"
               },
               {
                  "name" : "geometry_building_number_units_hl",
                  "value" : "<5"
               },
               {
                  "name" : "geometry_foundation_type",
                  "value" : "Slab"
               },
               {
                  "name" : "geometry_wall_type",
                  "value" : "Masonry"
               },
               {
                  "name" : "geometry_stories",
                  "value" : "1"
               },
               {
                  "name" : "geometry_garage",
                  "value" : "2 Car"
               },
               {
                  "name" : "geometry_floor_area_bin",
                  "value" : "1500-2499"
               },
               {
                  "name" : "geometry_floor_area",
                  "value" : "1500-1999"
               },
               {
                  "name" : "bedrooms",
                  "value" : "3"
               },
               {
                  "name" : "corridor",
                  "value" : "Double-Loaded Interior"
               },
               {
                  "name" : "occupants",
                  "value" : "2"
               },
               {
                  "name" : "orientation",
                  "value" : "Northeast"
               },
               {
                  "name" : "eaves",
                  "value" : "2 ft"
               },
               {
                  "name" : "door_area",
                  "value" : "20 ft^2"
               },
               {
                  "name" : "window_areas",
                  "value" : "F12 B12 L12 R12"
               },
               {
                  "name" : "overhangs",
                  "value" : "None"
               },
               {
                  "name" : "neighbors",
                  "value" : "Left/Right at 15ft"
               },
               {
                  "name" : "insulation_ceiling",
                  "value" : "R-30"
               },
               {
                  "name" : "insulation_roof",
                  "value" : "None"
               },
               {
                  "name" : "radiant_barrier",
                  "value" : "No"
               },
               {
                  "name" : "roof_material_unfinished_attic",
                  "value" : "Asphalt Shingles, Medium"
               },
               {
                  "name" : "roof_material_finished_roof",
                  "value" : "None"
               },
               {
                  "name" : "insulation_slab",
                  "value" : "Uninsulated"
               },
               {
                  "name" : "insulation_crawlspace",
                  "value" : "None"
               },
               {
                  "name" : "insulation_unfinished_basement",
                  "value" : "None"
               },
               {
                  "name" : "insulation_finished_basement",
                  "value" : "None"
               },
               {
                  "name" : "insulation_pier_beam",
                  "value" : "None"
               },
               {
                  "name" : "insulation_wall",
                  "value" : "CMU, 6-in Hollow, R-11"
               },
               {
                  "name" : "interior_shading",
                  "value" : "Summer = 0.7, Winter = 0.7"
               },
               {
                  "name" : "windows",
                  "value" : "2+ Pane"
               },
               {
                  "name" : "doors",
                  "value" : "Fiberglass"
               },
               {
                  "name" : "water_heater",
                  "value" : "Electric Standard"
               },
               {
                  "name" : "hot_water_fixtures",
                  "value" : "100% Usage"
               },
               {
                  "name" : "hot_water_distribution",
                  "value" : "Uninsulated, Standard"
               },
               {
                  "name" : "solar_hot_water",
                  "value" : "None"
               },
               {
                  "name" : "hvac_system_is_heat_pump",
                  "value" : "Yes"
               },
               {
                  "name" : "hvac_system_heat_pump",
                  "value" : "ASHP, SEER 13, 7.7 HSPF"
               },
               {
                  "name" : "hvac_system_heating",
                  "value" : "None"
               },
               {
                  "name" : "hvac_system_cooling",
                  "value" : "None"
               },
               {
                  "name" : "hvac_system_cooling_type",
                  "value" : "Central"
               },
               {
                  "name" : "heating_setpoint",
                  "value" : "70F"
               },
               {
                  "name" : "cooling_setpoint",
                  "value" : "75F"
               },
               {
                  "name" : "heating_setpoint_has_offset",
                  "value" : "No"
               },
               {
                  "name" : "cooling_setpoint_has_offset",
                  "value" : "No"
               },
               {
                  "name" : "heating_setpoint_offset_magnitude",
                  "value" : "0F"
               },
               {
                  "name" : "cooling_setpoint_offset_magnitude",
                  "value" : "0F"
               },
               {
                  "name" : "heating_setpoint_offset_period",
                  "value" : "None"
               },
               {
                  "name" : "cooling_setpoint_offset_period",
                  "value" : "None"
               },
               {
                  "name" : "ceiling_fan",
                  "value" : "National Average"
               },
               {
                  "name" : "dehumidifier",
                  "value" : "None"
               },
               {
                  "name" : "refrigerator",
                  "value" : "EF 17.6"
               },
               {
                  "name" : "refrigeration_schedule",
                  "value" : "National Average"
               },
               {
                  "name" : "cooking_range",
                  "value" : "Electric, 100% Usage"
               },
               {
                  "name" : "cooking_range_schedule",
                  "value" : "National Average"
               },
               {
                  "name" : "dishwasher",
                  "value" : "None"
               },
               {
                  "name" : "clothes_washer_presence",
                  "value" : "Yes"
               },
               {
                  "name" : "clothes_washer",
                  "value" : "EnergyStar, 100% Usage"
               },
               {
                  "name" : "clothes_dryer",
                  "value" : "Electric, 100% Usage"
               },
               {
                  "name" : "lighting",
                  "value" : "100% CFL"
               },
               {
                  "name" : "lighting_interior_use",
                  "value" : "100% Usage"
               },
               {
                  "name" : "lighting_other_use",
                  "value" : "100% Usage"
               },
               {
                  "name" : "holiday_lighting",
                  "value" : "No Exterior Use"
               },
               {
                  "name" : "plug_loads",
                  "value" : "100%"
               },
               {
                  "name" : "plug_loads_schedule",
                  "value" : "National Average"
               },
               {
                  "name" : "electric_vehicle",
                  "value" : "None"
               },
               {
                  "name" : "misc_extra_refrigerator",
                  "value" : "None"
               },
               {
                  "name" : "misc_freezer",
                  "value" : "None"
               },
               {
                  "name" : "misc_gas_fireplace",
                  "value" : "None"
               },
               {
                  "name" : "misc_gas_grill",
                  "value" : "None"
               },
               {
                  "name" : "misc_gas_lighting",
                  "value" : "None"
               },
               {
                  "name" : "misc_hot_tub_spa",
                  "value" : "None"
               },
               {
                  "name" : "misc_pool",
                  "value" : "None"
               },
               {
                  "name" : "misc_pool_heater",
                  "value" : "None"
               },
               {
                  "name" : "misc_pool_pump",
                  "value" : "None"
               },
               {
                  "name" : "misc_pool_schedule",
                  "value" : "National Average"
               },
               {
                  "name" : "misc_well_pump",
                  "value" : "None"
               },
               {
                  "name" : "ducts",
                  "value" : "20% Leakage, R-8"
               },
               {
                  "name" : "infiltration",
                  "value" : "15 ACH50"
               },
               {
                  "name" : "natural_ventilation",
                  "value" : "Year-Round, 3 days/wk"
               },
               {
                  "name" : "mechanical_ventilation",
                  "value" : "None"
               },
               {
                  "name" : "bathroom_spot_vent_hour",
                  "value" : "Hour3"
               },
               {
                  "name" : "range_spot_vent_hour",
                  "value" : "Hour19"
               },
               {
                  "name" : "pv",
                  "value" : "None"
               },
               {
                  "name" : "days_shifted",
                  "value" : "Day2"
               },
               {
                  "name" : "geometry_perimeter_footprint_ratio",
                  "value" : "0.13"
               },
               {
                  "name" : "ahs_region",
                  "value" : "CBSA Houston-The Woodlands-Sugar Land, TX"
               },
               {
                  "name" : "ashrae_iecc_climate_zone_2004",
                  "value" : "2A"
               },
               {
                  "name" : "state",
                  "value" : "TX"
               },
               {
                  "name" : "census_division",
                  "value" : "West South Central"
               },
               {
                  "name" : "census_region",
                  "value" : "South"
               },
               {
                  "name" : "iso_rto_region",
                  "value" : "ERCOT"
               },
               {
                  "name" : "building_america_climate_zone",
                  "value" : "Hot-Humid"
               },
               {
                  "name" : "county",
                  "value" : "TX, Harris County"
               },
               {
                  "name" : "puma",
                  "value" : "TX, 04604"
               },
               {
                  "name" : "location_city",
                  "value" : "Houston Bush Intercontinental"
               },
               {
                  "name" : "location_state",
                  "value" : "TX"
               },
               {
                  "name" : "location_latitude",
                  "value" : "30.0"
               },
               {
                  "name" : "location_longitude",
                  "value" : "-95.37"
               },
               {
                  "name" : "climate_zone_ba",
                  "value" : "Hot-Humid"
               },
               {
                  "name" : "weight",
                  "value" : "27500000.0"
               }
            ],
            "step_warnings" : [
               "Could not load nokogiri, no HPXML validation performed.",
               "Could not load nokogiri, no HPXML validation performed.",
               "Assembly R-value (0.0) for 'Surface_27:45' below minimum expected value. Construction R-value increased to 2.26.",
               "Assembly R-value (0.0) for 'Surface_27:135' below minimum expected value. Construction R-value increased to 2.26.",
               "Assembly R-value (0.0) for 'Surface_27:225' below minimum expected value. Construction R-value increased to 2.26.",
               "Assembly R-value (0.0) for 'Surface_27:315' below minimum expected value. Construction R-value increased to 2.26.",
               "Assembly R-value (0.0) for 'Surface_24:45' below minimum expected value. Construction R-value increased to 2.26.",
               "Assembly R-value (0.0) for 'Surface_24:135' below minimum expected value. Construction R-value increased to 2.26.",
               "Assembly R-value (0.0) for 'Surface_24:225' below minimum expected value. Construction R-value increased to 2.26.",
               "Assembly R-value (0.0) for 'Surface_24:315' below minimum expected value. Construction R-value increased to 2.26.",
               "Assembly R-value (0.0) for 'Surface_10:45' below minimum expected value. Construction R-value increased to 2.17.",
               "Assembly R-value (0.0) for 'Surface_10:135' below minimum expected value. Construction R-value increased to 2.17.",
               "Assembly R-value (0.0) for 'Surface_10:225' below minimum expected value. Construction R-value increased to 2.17.",
               "Assembly R-value (0.0) for 'Surface_10:315' below minimum expected value. Construction R-value increased to 2.17.",
               "Assembly R-value (0.0) for 'Surface_11' below minimum expected value. Construction R-value increased to 2.51."
            ]
         }
      },
      {
         "arguments" : {
            "option_1" : "Windows|Low-E, Triple, Non-metal, Air, L-Gain",
            "option_1_cost_1_multiplier" : "Window Area (ft^2)",
            "option_1_cost_1_value" : 45.770000000000003,
            "option_1_lifetime" : 30,
            "run_measure" : 1,
            "upgrade_name" : "Triple-Pane Windows"
         },
         "measure_dir_name" : "ApplyUpgrade",
         "result" : {
            "completed_at" : "20200407T154334Z",
            "measure_class_name" : "ApplyUpgrade",
            "measure_display_name" : "Apply Upgrade",
            "measure_name" : "apply_upgrade",
            "measure_taxonomy" : "Whole Building.Space Types",
            "measure_type" : "ModelMeasure",
            "measure_uid" : "33f1654c-f734-43d1-b35d-9d2856e41b5a",
            "measure_version_id" : "51f77826-184f-4567-a599-da6bb73a1bb3",
            "measure_version_modified" : "20200406T190911Z",
            "measure_xml_checksum" : "9339BE01",
            "started_at" : "20200407T154134Z",
            "stderr" : "",
            "stdout" : "[openstudio.measure.OSRunner] <1> Cannot find current Workflow Step\n[openstudio.measure.OSRunner] <1> Cannot find current Workflow Step\n",
            "step_errors" : [],
            "step_files" : [],
            "step_info" : [
               "Assigning option 'Low-E, Triple, Non-metal, Air, L-Gain' for parameter 'Windows'.",
               "Calling BuildResidentialHPXML measure with arguments:\nwindow_ufactor -> 0.29 \\nwindow_shgc -> 0.26 \\nskylight_ufactor -> 0.29 \\nskylight_shgc -> 0.26 \\nhpxml_path -> /var/simdata/openstudio/run/upgraded.xml \\nschedules_output_path -> ../schedules.csv \\nweather_dir -> ../../weather \\nweather_station_epw_filename -> USA_TX_Houston-Bush.Intercontinental.AP.722430_TMY3.epw \\ngeometry_unit_type -> single-family detached \\ngeometry_level -> Bottom \\ngeometry_horizontal_location -> Left \\ngeometry_wall_height -> 8 \\ngeometry_aspect_ratio -> 1.8 \\ngeometry_attic_type -> VentedAttic \\ngeometry_roof_type -> gable \\ngeometry_roof_pitch -> 6:12 \\ngeometry_num_bathrooms -> 1 \\ngeometry_inset_width -> 0 \\ngeometry_inset_depth -> 0 \\ngeometry_inset_position -> Right \\ngeometry_balcony_depth -> 0 \\ngeometry_foundation_type -> SlabOnGrade \\ngeometry_foundation_height -> 0 \\ngeometry_foundation_height_above_grade -> 0 \\ngeometry_num_floors_above_grade -> 1 \\ngeometry_garage_width -> 24 \\ngeometry_garage_depth -> 24 \\ngeometry_garage_protrusion -> 0.5 \\ngeometry_garage_position -> Right \\ngeometry_cfa -> 1690 \\ngeometry_num_bedrooms -> 3 \\ngeometry_corridor_position -> Double-Loaded Interior \\ngeometry_corridor_width -> 10 \\ngeometry_num_occupants -> 2 \\ngeometry_orientation -> 225 \\ngeometry_roof_structure -> truss, cantilever \\ngeometry_eaves_depth -> 2 \\ndoor_area -> 20 \\nwindow_front_wwr -> 0.12 \\nwindow_back_wwr -> 0.12 \\nwindow_left_wwr -> 0.12 \\nwindow_right_wwr -> 0.12 \\nwindow_area_front -> 0 \\nwindow_area_back -> 0 \\nwindow_area_left -> 0 \\nwindow_area_right -> 0 \\nwindow_aspect_ratio -> 1.333 \\nskylight_area_front -> 0 \\nskylight_area_back -> 0 \\nskylight_area_left -> 0 \\nskylight_area_right -> 0 \\noverhangs_front_depth -> 0 \\noverhangs_front_distance_to_top_of_window -> 0 \\noverhangs_back_depth -> 0 \\noverhangs_back_distance_to_top_of_window -> 0 \\noverhangs_left_depth -> 0 \\noverhangs_left_distance_to_top_of_window -> 0 \\noverhangs_right_depth -> 0 \\noverhangs_right_distance_to_top_of_window -> 0 \\nneighbor_front_distance -> 0 \\nneighbor_back_distance -> 0 \\nneighbor_left_distance -> 15 \\nneighbor_right_distance -> 15 \\nneighbor_front_height -> auto \\nneighbor_back_height -> auto \\nneighbor_left_height -> auto \\nneighbor_right_height -> auto \\nceiling_assembly_r -> 31.6 \\nroof_assembly_r -> 0 \\nroof_radiant_barrier -> false \\nroof_solar_absorptance -> 0.85 \\nroof_emittance -> 0.91 \\nslab_perimeter_insulation_r -> 0 \\nslab_perimeter_depth -> 0 \\nslab_under_insulation_r -> 0 \\nslab_under_width -> 0 \\nslab_carpet_fraction -> 0 \\nslab_carpet_r -> 0 \\nfloor_assembly_r -> 0 \\nfoundation_wall_insulation_r -> 0 \\nfoundation_wall_insulation_distance_to_top -> 0 \\nfoundation_wall_insulation_distance_to_bottom -> 0 \\nwall_type -> ConcreteMasonryUnit \\nwall_assembly_r -> 0 \\nwall_solar_absorptance -> 0.7 \\nwall_emittance -> 0.92 \\nwindow_interior_shading_summer -> 0.7 \\nwindow_interior_shading_winter -> 0.7 \\ndoor_rvalue -> 5 \\nwater_heater_type -> storage water heater \\nwater_heater_fuel_type -> electricity \\nwater_heater_location -> auto \\nwater_heater_tank_volume -> auto \\nwater_heater_heating_capacity -> 4.5 \\nwater_heater_efficiency_type -> EnergyFactor \\nwater_heater_efficiency -> 0.92 \\nwater_heater_recovery_efficiency -> 0.98 \\nwater_heater_standby_loss -> 0 \\nwater_heater_jacket_rvalue -> 0 \\nwater_heater_setpoint_temperature -> 125 \\nwater_fixtures_shower_low_flow -> false \\nwater_fixtures_sink_low_flow -> false \\ndhw_distribution_system_type -> Standard \\ndhw_distribution_standard_piping_length -> auto \\ndhw_distribution_recirc_control_type -> no control \\ndhw_distribution_recirc_piping_length -> 0 \\ndhw_distribution_recirc_branch_piping_length -> 0 \\ndhw_distribution_recirc_pump_power -> 0 \\ndhw_distribution_pipe_r -> 0 \\ndwhr_facilities_connected -> none \\ndwhr_equal_flow -> true \\ndwhr_efficiency -> 0.0 \\nsolar_thermal_system_type -> none \\nsolar_thermal_collector_area -> 40 \\nsolar_thermal_collector_loop_type -> liquid indirect \\nsolar_thermal_collector_type -> single glazing black \\nsolar_thermal_collector_azimuth -> 180 \\nsolar_thermal_collector_tilt -> roofpitch \\nsolar_thermal_collector_rated_optical_efficiency -> 0.77 \\nsolar_thermal_collector_rated_thermal_losses -> 0.793 \\nsolar_thermal_storage_volume -> auto \\nsolar_thermal_solar_fraction -> 0 \\nheat_pump_type -> air-to-air \\nheat_pump_heating_efficiency -> 7.7 \\nheat_pump_heating_capacity -> autosize \\nheat_pump_heating_capacity_17F -> autosize \\nheat_pump_fraction_heat_load_served -> 1 \\nheat_pump_cooling_efficiency -> 13 \\nheat_pump_cooling_capacity -> autosize \\nheat_pump_fraction_cool_load_served -> 1 \\nheat_pump_backup_fuel -> none \\nheat_pump_backup_heating_efficiency -> 1 \\nheat_pump_backup_heating_capacity -> autosize \\nheat_pump_mini_split_is_ducted -> false \\nheating_system_type -> none \\nheating_system_fuel -> natural gas \\nheating_system_heating_efficiency -> 0.78 \\nheating_system_heating_capacity -> autosize \\nheating_system_fraction_heat_load_served -> 1 \\nheating_system_electric_auxiliary_energy -> 0 \\ncooling_system_type -> none \\ncooling_system_cooling_efficiency -> 13 \\ncooling_system_cooling_capacity -> autosize \\ncooling_system_fraction_cool_load_served -> 1 \\ncooling_system_evap_cooler_is_ducted -> false \\nsetpoint_heating_temp -> 70 \\nsetpoint_heating_setback_temp -> 70 \\nsetpoint_heating_setback_hours_per_week -> 0 \\nsetpoint_heating_setback_start_hour -> 0 \\nsetpoint_cooling_temp -> 75 \\nsetpoint_cooling_setup_temp -> 75 \\nsetpoint_cooling_setup_hours_per_week -> 0 \\nsetpoint_cooling_setup_start_hour -> 0 \\nceiling_fan_efficiency -> 100 \\nceiling_fan_quantity -> 1 \\nceiling_fan_cooling_setpoint_temp_offset -> 0 \\nrefrigerator_present -> true \\nrefrigerator_location -> auto \\nrefrigerator_rated_annual_kwh -> 434 \\ncooking_range_present -> true \\ncooking_range_fuel_type -> electricity \\ncooking_range_is_induction -> false \\noven_present -> true \\noven_is_convection -> false \\ndishwasher_present -> false \\ndishwasher_efficiency_type -> RatedAnnualkWh \\ndishwasher_efficiency -> 290 \\ndishwasher_place_setting_capacity -> 12 \\nclothes_washer_present -> true \\nclothes_washer_location -> auto \\nclothes_washer_efficiency_type -> IntegratedModifiedEnergyFactor \\nclothes_washer_efficiency -> 2.07 \\nclothes_washer_rated_annual_kwh -> 123 \\nclothes_washer_label_electric_rate -> 0.1218 \\nclothes_washer_label_gas_rate -> 1.065 \\nclothes_washer_label_annual_gas_cost -> 9 \\nclothes_washer_capacity -> 3.68 \\nclothes_dryer_present -> true \\nclothes_dryer_location -> auto \\nclothes_dryer_fuel_type -> electricity \\nclothes_dryer_efficiency_type -> CombinedEnergyFactor \\nclothes_dryer_efficiency -> 2.70 \\nclothes_dryer_control_type -> timer \\nplug_loads_television_annual_kwh -> 0 \\nplug_loads_other_annual_kwh -> 0 \\nplug_loads_other_frac_sensible -> 0 \\nplug_loads_other_frac_latent -> 0 \\nplug_loads_schedule_values -> false \\nplug_loads_weekday_fractions -> 0.035, 0.033, 0.032, 0.031, 0.032, 0.033, 0.037, 0.042, 0.043, 0.043, 0.043, 0.044, 0.045, 0.045, 0.044, 0.046, 0.048, 0.052, 0.053, 0.05, 0.047, 0.045, 0.04, 0.036 \\nplug_loads_weekend_fractions -> 0.035, 0.033, 0.032, 0.031, 0.032, 0.033, 0.037, 0.042, 0.043, 0.043, 0.043, 0.044, 0.045, 0.045, 0.044, 0.046, 0.048, 0.052, 0.053, 0.05, 0.047, 0.045, 0.04, 0.036 \\nplug_loads_monthly_multipliers -> 1.248, 1.257, 0.993, 0.989, 0.993, 0.827, 0.821, 0.821, 0.827, 0.99, 0.987, 1.248 \\nducts_supply_leakage_units -> CFM25 \\nducts_return_leakage_units -> CFM25 \\nducts_supply_leakage_value -> 75 \\nducts_return_leakage_value -> 25 \\nducts_supply_insulation_r -> 8 \\nducts_return_insulation_r -> 8 \\nducts_supply_location -> auto \\nducts_return_location -> auto \\nducts_supply_surface_area -> 150 \\nducts_return_surface_area -> 50 \\nair_leakage_units -> ACH50 \\nair_leakage_value -> 15 \\nair_leakage_shelter_coefficient -> auto \\nwindow_fraction_of_operable_area -> 0.33 \\nmech_vent_fan_type -> none \\nmech_vent_flow_rate -> 110 \\nmech_vent_hours_in_operation -> 24 \\nmech_vent_total_recovery_efficiency_type -> Unadjusted \\nmech_vent_total_recovery_efficiency -> 0 \\nmech_vent_sensible_recovery_efficiency_type -> Unadjusted \\nmech_vent_sensible_recovery_efficiency -> 0 \\nmech_vent_fan_power -> 30 \\nwhole_house_fan_present -> false \\nwhole_house_fan_flow_rate -> 0 \\nwhole_house_fan_power -> 0 \\npv_system_module_type_1 -> none \\npv_system_location_1 -> roof \\npv_system_tracking_1 -> fixed \\npv_system_array_azimuth_1 -> 180 \\npv_system_array_tilt_1 -> roofpitch \\npv_system_max_power_output_1 -> 4000 \\npv_system_inverter_efficiency_1 -> 0.96 \\npv_system_system_losses_fraction_1 -> 0.14 \\npv_system_module_type_2 -> none \\npv_system_location_2 -> roof \\npv_system_tracking_2 -> fixed \\npv_system_array_azimuth_2 -> 180 \\npv_system_array_tilt_2 -> 20 \\npv_system_max_power_output_2 -> 4000 \\npv_system_inverter_efficiency_2 -> 0.96 \\npv_system_system_losses_fraction_2 -> 0.14 \\nsimulation_control_timestep -> 10 \\nsimulation_control_begin_month -> 1 \\nsimulation_control_begin_day_of_month -> 1 \\nsimulation_control_end_month -> 12 \\nsimulation_control_end_day_of_month -> 31",
               "Set garage space.",
               "Set living space.",
               "Set VentedAttic space.",
               "Set garage attic space.",
               "Added 3 window(s), totaling 34.2 ft^2, to Surface 13.",
               "Added 5 window(s), totaling 57.3 ft^2, to Surface 9.",
               "Added 3 window(s), totaling 31.8 ft^2, to Surface 8.",
               "Added 2 window(s), totaling 20.3 ft^2, to Surface 10.",
               "Added 20.0 ft^2 door.",
               "/var/simdata/openstudio/run/upgraded.xml: Validated against HPXML schema.",
               "/var/simdata/openstudio/run/upgraded.xml: Validated against HPXML EnergyPlus Use Case.",
               "Wrote file: /var/simdata/openstudio/run/upgraded.xml",
               "Calling HPXMLtoOpenStudio measure with arguments:\nhpxml_path -> /var/simdata/openstudio/run/upgraded.xml \\nweather_dir -> ../../weather",
               "EC_adj=1.0"
            ],
            "step_initial_condition" : "The building started with 0 spaces.",
            "step_result" : "Success",
            "step_values" : [
               {
                  "name" : "option_1",
                  "value" : "Windows|Low-E, Triple, Non-metal, Air, L-Gain"
               },
               {
                  "name" : "option_1_cost_1_value",
                  "value" : 45.770000000000003
               },
               {
                  "name" : "option_1_cost_1_multiplier",
                  "value" : "Window Area (ft^2)"
               },
               {
                  "name" : "option_1_cost_2_multiplier",
                  "value" : ""
               },
               {
                  "name" : "option_1_lifetime",
                  "value" : 30
               },
               {
                  "name" : "option_2_cost_1_multiplier",
                  "value" : ""
               },
               {
                  "name" : "option_2_cost_2_multiplier",
                  "value" : ""
               },
               {
                  "name" : "option_3_cost_1_multiplier",
                  "value" : ""
               },
               {
                  "name" : "option_3_cost_2_multiplier",
                  "value" : ""
               },
               {
                  "name" : "option_4_cost_1_multiplier",
                  "value" : ""
               },
               {
                  "name" : "option_4_cost_2_multiplier",
                  "value" : ""
               },
               {
                  "name" : "option_5_cost_1_multiplier",
                  "value" : ""
               },
               {
                  "name" : "option_5_cost_2_multiplier",
                  "value" : ""
               },
               {
                  "name" : "option_6_cost_1_multiplier",
                  "value" : ""
               },
               {
                  "name" : "option_6_cost_2_multiplier",
                  "value" : ""
               },
               {
                  "name" : "option_7_cost_1_multiplier",
                  "value" : ""
               },
               {
                  "name" : "option_7_cost_2_multiplier",
                  "value" : ""
               },
               {
                  "name" : "option_8_cost_1_multiplier",
                  "value" : ""
               },
               {
                  "name" : "option_8_cost_2_multiplier",
                  "value" : ""
               },
               {
                  "name" : "option_9_cost_1_multiplier",
                  "value" : ""
               },
               {
                  "name" : "option_9_cost_2_multiplier",
                  "value" : ""
               },
               {
                  "name" : "option_10_cost_1_multiplier",
                  "value" : ""
               },
               {
                  "name" : "option_10_cost_2_multiplier",
                  "value" : ""
               },
               {
                  "name" : "option_11_cost_1_multiplier",
                  "value" : ""
               },
               {
                  "name" : "option_11_cost_2_multiplier",
                  "value" : ""
               },
               {
                  "name" : "option_12_cost_1_multiplier",
                  "value" : ""
               },
               {
                  "name" : "option_12_cost_2_multiplier",
                  "value" : ""
               },
               {
                  "name" : "option_13_cost_1_multiplier",
                  "value" : ""
               },
               {
                  "name" : "option_13_cost_2_multiplier",
                  "value" : ""
               },
               {
                  "name" : "option_14_cost_1_multiplier",
                  "value" : ""
               },
               {
                  "name" : "option_14_cost_2_multiplier",
                  "value" : ""
               },
               {
                  "name" : "option_15_cost_1_multiplier",
                  "value" : ""
               },
               {
                  "name" : "option_15_cost_2_multiplier",
                  "value" : ""
               },
               {
                  "name" : "option_16_cost_1_multiplier",
                  "value" : ""
               },
               {
                  "name" : "option_16_cost_2_multiplier",
                  "value" : ""
               },
               {
                  "name" : "option_17_cost_1_multiplier",
                  "value" : ""
               },
               {
                  "name" : "option_17_cost_2_multiplier",
                  "value" : ""
               },
               {
                  "name" : "option_18_cost_1_multiplier",
                  "value" : ""
               },
               {
                  "name" : "option_18_cost_2_multiplier",
                  "value" : ""
               },
               {
                  "name" : "option_19_cost_1_multiplier",
                  "value" : ""
               },
               {
                  "name" : "option_19_cost_2_multiplier",
                  "value" : ""
               },
               {
                  "name" : "option_20_cost_1_multiplier",
                  "value" : ""
               },
               {
                  "name" : "option_20_cost_2_multiplier",
                  "value" : ""
               },
               {
                  "name" : "option_21_cost_1_multiplier",
                  "value" : ""
               },
               {
                  "name" : "option_21_cost_2_multiplier",
                  "value" : ""
               },
               {
                  "name" : "option_22_cost_1_multiplier",
                  "value" : ""
               },
               {
                  "name" : "option_22_cost_2_multiplier",
                  "value" : ""
               },
               {
                  "name" : "option_23_cost_1_multiplier",
                  "value" : ""
               },
               {
                  "name" : "option_23_cost_2_multiplier",
                  "value" : ""
               },
               {
                  "name" : "option_24_cost_1_multiplier",
                  "value" : ""
               },
               {
                  "name" : "option_24_cost_2_multiplier",
                  "value" : ""
               },
               {
                  "name" : "option_25_cost_1_multiplier",
                  "value" : ""
               },
               {
                  "name" : "option_25_cost_2_multiplier",
                  "value" : ""
               },
               {
                  "name" : "run_measure",
                  "value" : 1
               },
               {
                  "name" : "option_01_cost_1_value_to_apply",
                  "value" : "45.77"
               },
               {
                  "name" : "option_01_cost_1_multiplier_to_apply",
                  "value" : "Window Area (ft^2)"
               },
               {
                  "name" : "option_01_cost_2_value_to_apply",
                  "value" : ""
               },
               {
                  "name" : "option_01_cost_2_multiplier_to_apply",
                  "value" : ""
               },
               {
                  "name" : "option_01_lifetime_to_apply",
                  "value" : "30"
               },
               {
                  "name" : "upgrade_name",
                  "value" : "Triple-Pane Windows"
               }
            ],
            "step_warnings" : [
               "Could not load nokogiri, no HPXML validation performed.",
               "The model contains existing objects and is being reset.",
               "Could not load nokogiri, no HPXML validation performed.",
               "Assembly R-value (0.0) for 'Surface_27:45' below minimum expected value. Construction R-value increased to 2.26.",
               "Assembly R-value (0.0) for 'Surface_27:135' below minimum expected value. Construction R-value increased to 2.26.",
               "Assembly R-value (0.0) for 'Surface_27:225' below minimum expected value. Construction R-value increased to 2.26.",
               "Assembly R-value (0.0) for 'Surface_27:315' below minimum expected value. Construction R-value increased to 2.26.",
               "Assembly R-value (0.0) for 'Surface_23:45' below minimum expected value. Construction R-value increased to 2.26.",
               "Assembly R-value (0.0) for 'Surface_23:135' below minimum expected value. Construction R-value increased to 2.26.",
               "Assembly R-value (0.0) for 'Surface_23:225' below minimum expected value. Construction R-value increased to 2.26.",
               "Assembly R-value (0.0) for 'Surface_23:315' below minimum expected value. Construction R-value increased to 2.26.",
               "Assembly R-value (0.0) for 'Surface_10:45' below minimum expected value. Construction R-value increased to 2.17.",
               "Assembly R-value (0.0) for 'Surface_10:135' below minimum expected value. Construction R-value increased to 2.17.",
               "Assembly R-value (0.0) for 'Surface_10:225' below minimum expected value. Construction R-value increased to 2.17.",
               "Assembly R-value (0.0) for 'Surface_10:315' below minimum expected value. Construction R-value increased to 2.17.",
               "Assembly R-value (0.0) for 'Surface_11' below minimum expected value. Construction R-value increased to 2.51."
            ]
         }
      },
      {
         "arguments" : {
            "include_timeseries_component_loads" : false,
            "include_timeseries_end_use_consumptions" : true,
            "include_timeseries_fuel_consumptions" : false,
            "include_timeseries_total_loads" : false,
            "include_timeseries_zone_temperatures" : false,
            "timeseries_frequency" : "hourly"
         },
         "measure_dir_name" : "SimulationOutputReport",
         "result" : {
            "completed_at" : "20200407T154500Z",
            "measure_class_name" : "SimulationOutputReport",
            "measure_display_name" : "HPXML Simulation Output Report",
            "measure_name" : "simulation_output_report",
            "measure_taxonomy" : "Reporting.QAQC",
            "measure_type" : "ReportingMeasure",
            "measure_uid" : "df9d170c-c21a-4130-866d-0d46b06073fd",
            "measure_version_id" : "d127a9b1-3d7a-494a-a009-fc89ab8ba319",
            "measure_version_modified" : "20200403T151237Z",
            "measure_xml_checksum" : "9BF1E6AC",
            "started_at" : "20200407T154458Z",
            "stderr" : "",
            "stdout" : "",
            "step_errors" : [],
            "step_files" : [],
            "step_info" : [
               "Wrote annual output results to /var/simdata/openstudio/run/results_annual.csv.",
               "Registering 30.56 for Electricity: Total MBtu.",
               "Registering 0.0 for Natural Gas: Total MBtu.",
               "Registering 0.0 for Fuel Oil: Total MBtu.",
               "Registering 0.0 for Propane: Total MBtu.",
               "Registering 0.0 for Wood: Total MBtu.",
               "Registering 0.0 for Wood Pellets: Total MBtu.",
               "Registering 5.5 for Electricity: Heating MBtu.",
               "Registering 0.58 for Electricity: Heating Fans/Pumps MBtu.",
               "Registering 7.58 for Electricity: Cooling MBtu.",
               "Registering 1.85 for Electricity: Cooling Fans/Pumps MBtu.",
               "Registering 6.46 for Electricity: Hot Water MBtu.",
               "Registering 0.0 for Electricity: Hot Water Recirc Pump MBtu.",
               "Registering 0.0 for Electricity: Hot Water Solar Thermal Pump MBtu.",
               "Registering 3.12 for Electricity: Lighting Interior MBtu.",
               "Registering 0.14 for Electricity: Lighting Garage MBtu.",
               "Registering 0.26 for Electricity: Lighting Exterior MBtu.",
               "Registering 0.0 for Electricity: Mech Vent MBtu.",
               "Registering 0.0 for Electricity: Whole House Fan MBtu.",
               "Registering 1.48 for Electricity: Refrigerator MBtu.",
               "Registering 0.0 for Electricity: Dishwasher MBtu.",
               "Registering 0.1 for Electricity: Clothes Washer MBtu.",
               "Registering 1.74 for Electricity: Clothes Dryer MBtu.",
               "Registering 1.53 for Electricity: Range/Oven MBtu.",
               "Registering 0.23 for Electricity: Ceiling Fan MBtu.",
               "Registering 0.0 for Electricity: Television MBtu.",
               "Registering 0.0 for Electricity: Plug Loads MBtu.",
               "Registering 0.0 for Electricity: PV MBtu.",
               "Registering 0.0 for Natural Gas: Heating MBtu.",
               "Registering 0.0 for Natural Gas: Hot Water MBtu.",
               "Registering 0.0 for Natural Gas: Clothes Dryer MBtu.",
               "Registering 0.0 for Natural Gas: Range/Oven MBtu.",
               "Registering 0.0 for Fuel Oil: Heating MBtu.",
               "Registering 0.0 for Fuel Oil: Hot Water MBtu.",
               "Registering 0.0 for Fuel Oil: Clothes Dryer MBtu.",
               "Registering 0.0 for Fuel Oil: Range/Oven MBtu.",
               "Registering 0.0 for Propane: Heating MBtu.",
               "Registering 0.0 for Propane: Hot Water MBtu.",
               "Registering 0.0 for Propane: Clothes Dryer MBtu.",
               "Registering 0.0 for Propane: Range/Oven MBtu.",
               "Registering 0.0 for Wood: Heating MBtu.",
               "Registering 0.0 for Wood: Hot Water MBtu.",
               "Registering 0.0 for Wood: Clothes Dryer MBtu.",
               "Registering 0.0 for Wood: Range/Oven MBtu.",
               "Registering 0.0 for Wood Pellets: Heating MBtu.",
               "Wrote timeseries output results to /var/simdata/openstudio/run/results_timeseries.csv."
            ],
            "step_result" : "Success",
            "step_values" : [
               {
                  "name" : "timeseries_frequency",
                  "value" : "hourly"
               },
               {
                  "name" : "include_timeseries_zone_temperatures",
                  "value" : false
               },
               {
                  "name" : "include_timeseries_fuel_consumptions",
                  "value" : false
               },
               {
                  "name" : "include_timeseries_end_use_consumptions",
                  "value" : true
               },
               {
                  "name" : "include_timeseries_total_loads",
                  "value" : false
               },
               {
                  "name" : "include_timeseries_component_loads",
                  "value" : false
               },
               {
                  "name" : "electricity_total_m_btu",
                  "value" : 30.559999999999999
               },
               {
                  "name" : "natural_gas_total_m_btu",
                  "value" : 0
               },
               {
                  "name" : "fuel_oil_total_m_btu",
                  "value" : 0
               },
               {
                  "name" : "propane_total_m_btu",
                  "value" : 0
               },
               {
                  "name" : "wood_total_m_btu",
                  "value" : 0
               },
               {
                  "name" : "wood_pellets_total_m_btu",
                  "value" : 0
               },
               {
                  "name" : "electricity_heating_m_btu",
                  "value" : 5.5
               },
               {
                  "name" : "electricity_heating_fans_pumps_m_btu",
                  "value" : 0.57999999999999996
               },
               {
                  "name" : "electricity_cooling_m_btu",
                  "value" : 7.5800000000000001
               },
               {
                  "name" : "electricity_cooling_fans_pumps_m_btu",
                  "value" : 1.8500000000000001
               },
               {
                  "name" : "electricity_hot_water_m_btu",
                  "value" : 6.46
               },
               {
                  "name" : "electricity_hot_water_recirc_pump_m_btu",
                  "value" : 0
               },
               {
                  "name" : "electricity_hot_water_solar_thermal_pump_m_btu",
                  "value" : 0
               },
               {
                  "name" : "electricity_lighting_interior_m_btu",
                  "value" : 3.1200000000000001
               },
               {
                  "name" : "electricity_lighting_garage_m_btu",
                  "value" : 0.14000000000000001
               },
               {
                  "name" : "electricity_lighting_exterior_m_btu",
                  "value" : 0.26000000000000001
               },
               {
                  "name" : "electricity_mech_vent_m_btu",
                  "value" : 0
               },
               {
                  "name" : "electricity_whole_house_fan_m_btu",
                  "value" : 0
               },
               {
                  "name" : "electricity_refrigerator_m_btu",
                  "value" : 1.48
               },
               {
                  "name" : "electricity_dishwasher_m_btu",
                  "value" : 0
               },
               {
                  "name" : "electricity_clothes_washer_m_btu",
                  "value" : 0.10000000000000001
               },
               {
                  "name" : "electricity_clothes_dryer_m_btu",
                  "value" : 1.74
               },
               {
                  "name" : "electricity_range_oven_m_btu",
                  "value" : 1.53
               },
               {
                  "name" : "electricity_ceiling_fan_m_btu",
                  "value" : 0.23000000000000001
               },
               {
                  "name" : "electricity_television_m_btu",
                  "value" : 0
               },
               {
                  "name" : "electricity_plug_loads_m_btu",
                  "value" : 0
               },
               {
                  "name" : "electricity_pv_m_btu",
                  "value" : 0
               },
               {
                  "name" : "natural_gas_heating_m_btu",
                  "value" : 0
               },
               {
                  "name" : "natural_gas_hot_water_m_btu",
                  "value" : 0
               },
               {
                  "name" : "natural_gas_clothes_dryer_m_btu",
                  "value" : 0
               },
               {
                  "name" : "natural_gas_range_oven_m_btu",
                  "value" : 0
               },
               {
                  "name" : "fuel_oil_heating_m_btu",
                  "value" : 0
               },
               {
                  "name" : "fuel_oil_hot_water_m_btu",
                  "value" : 0
               },
               {
                  "name" : "fuel_oil_clothes_dryer_m_btu",
                  "value" : 0
               },
               {
                  "name" : "fuel_oil_range_oven_m_btu",
                  "value" : 0
               },
               {
                  "name" : "propane_heating_m_btu",
                  "value" : 0
               },
               {
                  "name" : "propane_hot_water_m_btu",
                  "value" : 0
               },
               {
                  "name" : "propane_clothes_dryer_m_btu",
                  "value" : 0
               },
               {
                  "name" : "propane_range_oven_m_btu",
                  "value" : 0
               },
               {
                  "name" : "wood_heating_m_btu",
                  "value" : 0
               },
               {
                  "name" : "wood_hot_water_m_btu",
                  "value" : 0
               },
               {
                  "name" : "wood_clothes_dryer_m_btu",
                  "value" : 0
               },
               {
                  "name" : "wood_range_oven_m_btu",
                  "value" : 0
               },
               {
                  "name" : "wood_pellets_heating_m_btu",
                  "value" : 0
               }
            ],
            "step_warnings" : []
         }
      },
      {
         "arguments" : {},
         "measure_dir_name" : "ServerDirectoryCleanup",
         "result" : {
            "completed_at" : "20200407T154500Z",
            "measure_class_name" : "ServerDirectoryCleanup",
            "measure_display_name" : "Server Directory Cleanup",
            "measure_name" : "server_directory_cleanup",
            "measure_taxonomy" : "Calibration",
            "measure_type" : "ReportingMeasure",
            "measure_uid" : "ec7d04ad-0b7b-495b-825a-e1b6d28d1d3f",
            "measure_version_id" : "5136b80e-6294-409a-a11e-b1ff42157ae5",
            "measure_version_modified" : "20200406T190911Z",
            "measure_xml_checksum" : "5F1EDF75",
            "started_at" : "20200407T154500Z",
            "stderr" : "",
            "stdout" : "",
            "step_errors" : [],
            "step_files" : [],
            "step_final_condition" : "The following files were in the local run directory following the execution of this measure: ., .., 000_ResidentialSimulationControls, 001_BuildExistingModel, 002_ApplyUpgrade, 003_ServerDirectoryCleanup, 003_SimulationOutputReport, 004_ServerDirectoryCleanup, eplusout.end, eplusout.err, eplusout.mtd, eplusout.mtr, eplusout.rdd, eplustbl.htm, existing.xml, in.epw, in.idf, measures-upgrade.osw, measures.osw, measure_attributes.json, results_annual.csv, results_timeseries.csv, run.log, sqlite.err, started.job, stdout-energyplus, stdout-expandobject, upgraded.xml.",
            "step_info" : [
               "Deleted ./../eplusout.sql from the run directory.",
               "Deleted ./../eplusout.audit from the run directory.",
               "Deleted ./../in.osm from the run directory.",
               "Deleted ./../eplusout.bnd from the run directory.",
               "Deleted ./../eplusout.eio from the run directory.",
               "Deleted ./../eplusout.shd from the run directory.",
               "Deleted ./../eplusout.mdd from the run directory.",
               "Deleted ./../eplusout.eso from the run directory.",
               "Deleted ./../pre-preprocess.idf from the run directory."
            ],
            "step_initial_condition" : "The following files were in the local run directory prior to the execution of this measure: ., .., 000_ResidentialSimulationControls, 001_BuildExistingModel, 002_ApplyUpgrade, 003_ServerDirectoryCleanup, 003_SimulationOutputReport, 004_ServerDirectoryCleanup, eplusout.audit, eplusout.bnd, eplusout.eio, eplusout.end, eplusout.err, eplusout.eso, eplusout.mdd, eplusout.mtd, eplusout.mtr, eplusout.rdd, eplusout.shd, eplusout.sql, eplustbl.htm, existing.xml, in.epw, in.idf, in.osm, measures-upgrade.osw, measures.osw, measure_attributes.json, pre-preprocess.idf, results_annual.csv, results_timeseries.csv, run.log, sqlite.err, started.job, stdout-energyplus, stdout-expandobject, upgraded.xml.",
            "step_result" : "Success",
            "step_values" : [],
            "step_warnings" : []
         }
      }
   ],
   "updated_at" : "20200407T154501Z"
}
