Program Version,EnergyPlus, Version 9.2.0-921312fa1d, YMD=2020.10.08 03:31,
   ** Warning ** For Schedule:File="CLOTHES_DRYER_EXHAUST", Blank Schedule Type Limits Name input -- will not be validated.
   ** Warning ** ProcessScheduleInput: Schedule:Constant="ALWAYS ON CONTINUOUS", Blank Schedule Type Limits Name input -- will not be validated.
   ** Warning ** CalculateZoneVolume: 1 zone is not fully enclosed. For more details use:  Output:Diagnostics,DisplayExtrawarnings; 
   ** Warning ** CheckUsedConstructions: There are 2 nominally unused constructions in input.
   **   ~~~   ** For explicit details on each unused construction, use Output:Diagnostics,DisplayExtraWarnings;
   ** Warning ** The Standard Ratings is calculated for Coil:Cooling:DX:SingleSpeed = RES AC COOLING COIL but not at the AHRI test condition due to curve out of bound.
   **   ~~~   **  Review the Standard Ratings calculations in the Engineering Reference for this coil type. Also, use Output:Diagnostics, DisplayExtraWarnings for further guidance.
   ** Warning ** The Standard Ratings is calculated for Coil:Cooling:DX:SingleSpeed = RES AC|UNIT 10 COOLING COIL but not at the AHRI test condition due to curve out of bound.
   **   ~~~   **  Review the Standard Ratings calculations in the Engineering Reference for this coil type. Also, use Output:Diagnostics, DisplayExtraWarnings for further guidance.
   ** Warning ** The Standard Ratings is calculated for Coil:Cooling:DX:SingleSpeed = RES AC|UNIT 2 COOLING COIL but not at the AHRI test condition due to curve out of bound.
   **   ~~~   **  Review the Standard Ratings calculations in the Engineering Reference for this coil type. Also, use Output:Diagnostics, DisplayExtraWarnings for further guidance.
   ** Warning ** The Standard Ratings is calculated for Coil:Cooling:DX:SingleSpeed = RES AC|UNIT 3 COOLING COIL but not at the AHRI test condition due to curve out of bound.
   **   ~~~   **  Review the Standard Ratings calculations in the Engineering Reference for this coil type. Also, use Output:Diagnostics, DisplayExtraWarnings for further guidance.
   ** Warning ** The Standard Ratings is calculated for Coil:Cooling:DX:SingleSpeed = RES AC|UNIT 4 COOLING COIL but not at the AHRI test condition due to curve out of bound.
   **   ~~~   **  Review the Standard Ratings calculations in the Engineering Reference for this coil type. Also, use Output:Diagnostics, DisplayExtraWarnings for further guidance.
   ** Warning ** The Standard Ratings is calculated for Coil:Cooling:DX:SingleSpeed = RES AC|UNIT 5 COOLING COIL but not at the AHRI test condition due to curve out of bound.
   **   ~~~   **  Review the Standard Ratings calculations in the Engineering Reference for this coil type. Also, use Output:Diagnostics, DisplayExtraWarnings for further guidance.
   ** Warning ** The Standard Ratings is calculated for Coil:Cooling:DX:SingleSpeed = RES AC|UNIT 6 COOLING COIL but not at the AHRI test condition due to curve out of bound.
   **   ~~~   **  Review the Standard Ratings calculations in the Engineering Reference for this coil type. Also, use Output:Diagnostics, DisplayExtraWarnings for further guidance.
   ** Warning ** The Standard Ratings is calculated for Coil:Cooling:DX:SingleSpeed = RES AC|UNIT 7 COOLING COIL but not at the AHRI test condition due to curve out of bound.
   **   ~~~   **  Review the Standard Ratings calculations in the Engineering Reference for this coil type. Also, use Output:Diagnostics, DisplayExtraWarnings for further guidance.
   ** Warning ** The Standard Ratings is calculated for Coil:Cooling:DX:SingleSpeed = RES AC|UNIT 8 COOLING COIL but not at the AHRI test condition due to curve out of bound.
   **   ~~~   **  Review the Standard Ratings calculations in the Engineering Reference for this coil type. Also, use Output:Diagnostics, DisplayExtraWarnings for further guidance.
   ** Warning ** The Standard Ratings is calculated for Coil:Cooling:DX:SingleSpeed = RES AC|UNIT 9 COOLING COIL but not at the AHRI test condition due to curve out of bound.
   **   ~~~   **  Review the Standard Ratings calculations in the Engineering Reference for this coil type. Also, use Output:Diagnostics, DisplayExtraWarnings for further guidance.
   ** Warning ** Check input. Pump nominal power or motor efficiency is set to 0, for pump=PUMP VARIABLE SPEED 1
   ** Warning ** Check input. Pump nominal power or motor efficiency is set to 0, for pump=PUMP VARIABLE SPEED 10
   ** Warning ** Check input. Pump nominal power or motor efficiency is set to 0, for pump=PUMP VARIABLE SPEED 2
   ** Warning ** Check input. Pump nominal power or motor efficiency is set to 0, for pump=PUMP VARIABLE SPEED 3
   ** Warning ** Check input. Pump nominal power or motor efficiency is set to 0, for pump=PUMP VARIABLE SPEED 4
   ** Warning ** Check input. Pump nominal power or motor efficiency is set to 0, for pump=PUMP VARIABLE SPEED 5
   ** Warning ** Check input. Pump nominal power or motor efficiency is set to 0, for pump=PUMP VARIABLE SPEED 6
   ** Warning ** Check input. Pump nominal power or motor efficiency is set to 0, for pump=PUMP VARIABLE SPEED 7
   ** Warning ** Check input. Pump nominal power or motor efficiency is set to 0, for pump=PUMP VARIABLE SPEED 8
   ** Warning ** Check input. Pump nominal power or motor efficiency is set to 0, for pump=PUMP VARIABLE SPEED 9
   ** Warning ** Meter:Custom="UNIT 1:ELECTRICITYHEATING", invalid Output Variable or Meter Name="HEATING COIL DEFROST ELECTRIC ENERGY".
   **   ~~~   ** ...will not be shown with the Meter results.
   ** Warning ** Meter:Custom="UNIT 1:ELECTRICITYHEATING", invalid Output Variable or Meter Name="HEATING COIL CRANKCASE HEATER ELECTRIC ENERGY".
   **   ~~~   ** ...will not be shown with the Meter results.
   ** Warning ** Meter:Custom="UNIT 1:ELECTRICITYCOOLING", invalid Output Variable or Meter Name="UNITARY SYSTEM COOLING ANCILLARY ELECTRIC ENERGY".
   **   ~~~   ** ...will not be shown with the Meter results.
   ** Warning ** Meter:Custom="UNIT 1:WOODHEATING", invalid Output Variable or Meter Name="HEATING COIL OTHERFUEL1 ENERGY".
   **   ~~~   ** ...will not be shown with the Meter results.
   ** Warning ** Meter:Custom="UNIT 1:WOODHEATING", no items assigned 
   **   ~~~   ** ...will not be shown with the Meter results. This may be caused by a Meter:Custom be assigned to another Meter:Custom.
   ** Warning ** Meter:Custom="UNIT 2:ELECTRICITYHEATING", invalid Output Variable or Meter Name="HEATING COIL DEFROST ELECTRIC ENERGY".
   **   ~~~   ** ...will not be shown with the Meter results.
   ** Warning ** Meter:Custom="UNIT 2:ELECTRICITYHEATING", invalid Output Variable or Meter Name="HEATING COIL CRANKCASE HEATER ELECTRIC ENERGY".
   **   ~~~   ** ...will not be shown with the Meter results.
   ** Warning ** Meter:Custom="UNIT 2:ELECTRICITYCOOLING", invalid Output Variable or Meter Name="UNITARY SYSTEM COOLING ANCILLARY ELECTRIC ENERGY".
   **   ~~~   ** ...will not be shown with the Meter results.
   ** Warning ** Meter:Custom="UNIT 2:WOODHEATING", invalid Output Variable or Meter Name="HEATING COIL OTHERFUEL1 ENERGY".
   **   ~~~   ** ...will not be shown with the Meter results.
   ** Warning ** Meter:Custom="UNIT 2:WOODHEATING", no items assigned 
   **   ~~~   ** ...will not be shown with the Meter results. This may be caused by a Meter:Custom be assigned to another Meter:Custom.
   ** Warning ** Meter:Custom="UNIT 3:ELECTRICITYHEATING", invalid Output Variable or Meter Name="HEATING COIL DEFROST ELECTRIC ENERGY".
   **   ~~~   ** ...will not be shown with the Meter results.
   ** Warning ** Meter:Custom="UNIT 3:ELECTRICITYHEATING", invalid Output Variable or Meter Name="HEATING COIL CRANKCASE HEATER ELECTRIC ENERGY".
   **   ~~~   ** ...will not be shown with the Meter results.
   ** Warning ** Meter:Custom="UNIT 3:ELECTRICITYCOOLING", invalid Output Variable or Meter Name="UNITARY SYSTEM COOLING ANCILLARY ELECTRIC ENERGY".
   **   ~~~   ** ...will not be shown with the Meter results.
   ** Warning ** Meter:Custom="UNIT 3:WOODHEATING", invalid Output Variable or Meter Name="HEATING COIL OTHERFUEL1 ENERGY".
   **   ~~~   ** ...will not be shown with the Meter results.
   ** Warning ** Meter:Custom="UNIT 3:WOODHEATING", no items assigned 
   **   ~~~   ** ...will not be shown with the Meter results. This may be caused by a Meter:Custom be assigned to another Meter:Custom.
   ** Warning ** Meter:Custom="UNIT 4:ELECTRICITYHEATING", invalid Output Variable or Meter Name="HEATING COIL DEFROST ELECTRIC ENERGY".
   **   ~~~   ** ...will not be shown with the Meter results.
   ** Warning ** Meter:Custom="UNIT 4:ELECTRICITYHEATING", invalid Output Variable or Meter Name="HEATING COIL CRANKCASE HEATER ELECTRIC ENERGY".
   **   ~~~   ** ...will not be shown with the Meter results.
   ** Warning ** Meter:Custom="UNIT 4:ELECTRICITYCOOLING", invalid Output Variable or Meter Name="UNITARY SYSTEM COOLING ANCILLARY ELECTRIC ENERGY".
   **   ~~~   ** ...will not be shown with the Meter results.
   ** Warning ** Meter:Custom="UNIT 4:WOODHEATING", invalid Output Variable or Meter Name="HEATING COIL OTHERFUEL1 ENERGY".
   **   ~~~   ** ...will not be shown with the Meter results.
   ** Warning ** Meter:Custom="UNIT 4:WOODHEATING", no items assigned 
   **   ~~~   ** ...will not be shown with the Meter results. This may be caused by a Meter:Custom be assigned to another Meter:Custom.
   ** Warning ** Meter:Custom="UNIT 5:ELECTRICITYHEATING", invalid Output Variable or Meter Name="HEATING COIL DEFROST ELECTRIC ENERGY".
   **   ~~~   ** ...will not be shown with the Meter results.
   ** Warning ** Meter:Custom="UNIT 5:ELECTRICITYHEATING", invalid Output Variable or Meter Name="HEATING COIL CRANKCASE HEATER ELECTRIC ENERGY".
   **   ~~~   ** ...will not be shown with the Meter results.
   ** Warning ** Meter:Custom="UNIT 5:ELECTRICITYCOOLING", invalid Output Variable or Meter Name="UNITARY SYSTEM COOLING ANCILLARY ELECTRIC ENERGY".
   **   ~~~   ** ...will not be shown with the Meter results.
   ** Warning ** Meter:Custom="UNIT 5:WOODHEATING", invalid Output Variable or Meter Name="HEATING COIL OTHERFUEL1 ENERGY".
   **   ~~~   ** ...will not be shown with the Meter results.
   ** Warning ** Meter:Custom="UNIT 5:WOODHEATING", no items assigned 
   **   ~~~   ** ...will not be shown with the Meter results. This may be caused by a Meter:Custom be assigned to another Meter:Custom.
   ** Warning ** Meter:Custom="UNIT 6:ELECTRICITYHEATING", invalid Output Variable or Meter Name="HEATING COIL DEFROST ELECTRIC ENERGY".
   **   ~~~   ** ...will not be shown with the Meter results.
   ** Warning ** Meter:Custom="UNIT 6:ELECTRICITYHEATING", invalid Output Variable or Meter Name="HEATING COIL CRANKCASE HEATER ELECTRIC ENERGY".
   **   ~~~   ** ...will not be shown with the Meter results.
   ** Warning ** Meter:Custom="UNIT 6:ELECTRICITYCOOLING", invalid Output Variable or Meter Name="UNITARY SYSTEM COOLING ANCILLARY ELECTRIC ENERGY".
   **   ~~~   ** ...will not be shown with the Meter results.
   ** Warning ** Meter:Custom="UNIT 6:WOODHEATING", invalid Output Variable or Meter Name="HEATING COIL OTHERFUEL1 ENERGY".
   **   ~~~   ** ...will not be shown with the Meter results.
   ** Warning ** Meter:Custom="UNIT 6:WOODHEATING", no items assigned 
   **   ~~~   ** ...will not be shown with the Meter results. This may be caused by a Meter:Custom be assigned to another Meter:Custom.
   ** Warning ** Meter:Custom="UNIT 7:ELECTRICITYHEATING", invalid Output Variable or Meter Name="HEATING COIL DEFROST ELECTRIC ENERGY".
   **   ~~~   ** ...will not be shown with the Meter results.
   ** Warning ** Meter:Custom="UNIT 7:ELECTRICITYHEATING", invalid Output Variable or Meter Name="HEATING COIL CRANKCASE HEATER ELECTRIC ENERGY".
   **   ~~~   ** ...will not be shown with the Meter results.
   ** Warning ** Meter:Custom="UNIT 7:ELECTRICITYCOOLING", invalid Output Variable or Meter Name="UNITARY SYSTEM COOLING ANCILLARY ELECTRIC ENERGY".
   **   ~~~   ** ...will not be shown with the Meter results.
   ** Warning ** Meter:Custom="UNIT 7:WOODHEATING", invalid Output Variable or Meter Name="HEATING COIL OTHERFUEL1 ENERGY".
   **   ~~~   ** ...will not be shown with the Meter results.
   ** Warning ** Meter:Custom="UNIT 7:WOODHEATING", no items assigned 
   **   ~~~   ** ...will not be shown with the Meter results. This may be caused by a Meter:Custom be assigned to another Meter:Custom.
   ** Warning ** Meter:Custom="UNIT 8:ELECTRICITYHEATING", invalid Output Variable or Meter Name="HEATING COIL DEFROST ELECTRIC ENERGY".
   **   ~~~   ** ...will not be shown with the Meter results.
   ** Warning ** Meter:Custom="UNIT 8:ELECTRICITYHEATING", invalid Output Variable or Meter Name="HEATING COIL CRANKCASE HEATER ELECTRIC ENERGY".
   **   ~~~   ** ...will not be shown with the Meter results.
   ** Warning ** Meter:Custom="UNIT 8:ELECTRICITYCOOLING", invalid Output Variable or Meter Name="UNITARY SYSTEM COOLING ANCILLARY ELECTRIC ENERGY".
   **   ~~~   ** ...will not be shown with the Meter results.
   ** Warning ** Meter:Custom="UNIT 8:WOODHEATING", invalid Output Variable or Meter Name="HEATING COIL OTHERFUEL1 ENERGY".
   **   ~~~   ** ...will not be shown with the Meter results.
   ** Warning ** Meter:Custom="UNIT 8:WOODHEATING", no items assigned 
   **   ~~~   ** ...will not be shown with the Meter results. This may be caused by a Meter:Custom be assigned to another Meter:Custom.
   ** Warning ** Meter:Custom="UNIT 9:ELECTRICITYHEATING", invalid Output Variable or Meter Name="HEATING COIL DEFROST ELECTRIC ENERGY".
   **   ~~~   ** ...will not be shown with the Meter results.
   ** Warning ** Meter:Custom="UNIT 9:ELECTRICITYHEATING", invalid Output Variable or Meter Name="HEATING COIL CRANKCASE HEATER ELECTRIC ENERGY".
   **   ~~~   ** ...will not be shown with the Meter results.
   ** Warning ** Meter:Custom="UNIT 9:ELECTRICITYCOOLING", invalid Output Variable or Meter Name="UNITARY SYSTEM COOLING ANCILLARY ELECTRIC ENERGY".
   **   ~~~   ** ...will not be shown with the Meter results.
   ** Warning ** Meter:Custom="UNIT 9:WOODHEATING", invalid Output Variable or Meter Name="HEATING COIL OTHERFUEL1 ENERGY".
   **   ~~~   ** ...will not be shown with the Meter results.
   ** Warning ** Meter:Custom="UNIT 9:WOODHEATING", no items assigned 
   **   ~~~   ** ...will not be shown with the Meter results. This may be caused by a Meter:Custom be assigned to another Meter:Custom.
   ** Warning ** Meter:Custom="UNIT 10:ELECTRICITYHEATING", invalid Output Variable or Meter Name="HEATING COIL DEFROST ELECTRIC ENERGY".
   **   ~~~   ** ...will not be shown with the Meter results.
   ** Warning ** Meter:Custom="UNIT 10:ELECTRICITYHEATING", invalid Output Variable or Meter Name="HEATING COIL CRANKCASE HEATER ELECTRIC ENERGY".
   **   ~~~   ** ...will not be shown with the Meter results.
   ** Warning ** Meter:Custom="UNIT 10:ELECTRICITYCOOLING", invalid Output Variable or Meter Name="UNITARY SYSTEM COOLING ANCILLARY ELECTRIC ENERGY".
   **   ~~~   ** ...will not be shown with the Meter results.
   ** Warning ** Meter:Custom="UNIT 10:WOODHEATING", invalid Output Variable or Meter Name="HEATING COIL OTHERFUEL1 ENERGY".
   **   ~~~   ** ...will not be shown with the Meter results.
   ** Warning ** Meter:Custom="UNIT 10:WOODHEATING", no items assigned 
   **   ~~~   ** ...will not be shown with the Meter results. This may be caused by a Meter:Custom be assigned to another Meter:Custom.
   ** Warning ** Output:Meter: invalid Key Name="UNIT 1:WOODHEATING" - not found.
   ** Warning ** Output:Meter: invalid Key Name="UNIT 2:WOODHEATING" - not found.
   ** Warning ** Output:Meter: invalid Key Name="UNIT 3:WOODHEATING" - not found.
   ** Warning ** Output:Meter: invalid Key Name="UNIT 4:WOODHEATING" - not found.
   ** Warning ** Output:Meter: invalid Key Name="UNIT 5:WOODHEATING" - not found.
   ** Warning ** Output:Meter: invalid Key Name="UNIT 6:WOODHEATING" - not found.
   ** Warning ** Output:Meter: invalid Key Name="UNIT 7:WOODHEATING" - not found.
   ** Warning ** Output:Meter: invalid Key Name="UNIT 8:WOODHEATING" - not found.
   ** Warning ** Output:Meter: invalid Key Name="UNIT 9:WOODHEATING" - not found.
   ** Warning ** Output:Meter: invalid Key Name="UNIT 10:WOODHEATING" - not found.
   ** Warning ** Output:Meter: invalid Key Name="UNIT 1:WOODHEATING" - not found.
   ** Warning ** Output:Meter: invalid Key Name="UNIT 2:WOODHEATING" - not found.
   ** Warning ** Output:Meter: invalid Key Name="UNIT 3:WOODHEATING" - not found.
   ** Warning ** Output:Meter: invalid Key Name="UNIT 4:WOODHEATING" - not found.
   ** Warning ** Output:Meter: invalid Key Name="UNIT 5:WOODHEATING" - not found.
   ** Warning ** Output:Meter: invalid Key Name="UNIT 6:WOODHEATING" - not found.
   ** Warning ** Output:Meter: invalid Key Name="UNIT 7:WOODHEATING" - not found.
   ** Warning ** Output:Meter: invalid Key Name="UNIT 8:WOODHEATING" - not found.
   ** Warning ** Output:Meter: invalid Key Name="UNIT 9:WOODHEATING" - not found.
   ** Warning ** Output:Meter: invalid Key Name="UNIT 10:WOODHEATING" - not found.
   ** Warning ** Output:Meter: invalid Key Name="GAS:FACILITY" - not found.
   ** Warning ** Output:Meter: invalid Key Name="DISTRICTCOOLING:FACILITY" - not found.
   ** Warning ** Output:Meter: invalid Key Name="DISTRICTHEATING:FACILITY" - not found.
   ** Warning ** Output:Meter:MeterFileOnly: invalid Key Name="GAS:FACILITY" - not found.
   ** Warning ** Output:Meter:MeterFileOnly requested for "Electricity:Facility" (TimeStep), already on "Output:Meter". Will report to both eplusout.eso and eplusout.mtr
   ************* Testing Individual Branch Integrity
   ************* All Branches passed integrity testing
   ************* Testing Individual Supply Air Path Integrity
   ************* All Supply Air Paths passed integrity testing
   ************* Testing Individual Return Air Path Integrity
   ************* All Return Air Paths passed integrity testing
   ************* No node connection errors were found.
   ************* Beginning Simulation
   ** Warning ** Processing Monthly Tabular Reports: Variable names not valid for this simulation
   **   ~~~   ** ...use Output:Diagnostics,DisplayExtraWarnings; to show more details on individual variables.
   ** Warning ** SimHVAC: Maximum iterations (20) exceeded for all HVAC loops, at RUN PERIOD 1, 01/01 10:45 - 11:00
   **   ~~~   ** The solution for one or more of the Air Loop HVAC systems did not appear to converge
   **   ~~~   ** ...use Output:Diagnostics,DisplayExtraWarnings; to show more details on each max iteration exceeded.
   ** Warning ** SimHVAC: Maximum iterations (20) exceeded for all HVAC loops, at RUN PERIOD 1, 01/01 10:45 - 10:52
   **   ~~~   ** The solution for one or more of the Air Loop HVAC systems did not appear to converge
   ** Warning ** SimHVAC: Maximum iterations (20) exceeded for all HVAC loops, at RUN PERIOD 1, 01/01 11:15 - 11:30
   **   ~~~   ** The solution for one or more of the Air Loop HVAC systems did not appear to converge
   ** Warning ** SimHVAC: Maximum iterations (20) exceeded for all HVAC loops, at RUN PERIOD 1, 01/01 11:15 - 11:22
   **   ~~~   ** The solution for one or more of the Air Loop HVAC systems did not appear to converge
   ** Warning ** SimHVAC: Maximum iterations (20) exceeded for all HVAC loops, at RUN PERIOD 1, 01/01 11:30 - 11:45
   **   ~~~   ** The solution for one or more of the Air Loop HVAC systems did not appear to converge
   ** Warning ** SimHVAC: Maximum iterations (20) exceeded for all HVAC loops, at RUN PERIOD 1, 01/01 11:30 - 11:38
   **   ~~~   ** The solution for one or more of the Air Loop HVAC systems did not appear to converge
   ** Warning ** SimHVAC: Maximum iterations (20) exceeded for all HVAC loops, at RUN PERIOD 1, 01/01 11:38 - 11:45
   **   ~~~   ** The solution for one or more of the Air Loop HVAC systems did not appear to converge
   ** Warning ** SimHVAC: Maximum iterations (20) exceeded for all HVAC loops, at RUN PERIOD 1, 01/01 11:45 - 12:00
   **   ~~~   ** The solution for one or more of the Air Loop HVAC systems did not appear to converge
   ** Warning ** SimHVAC: Maximum iterations (20) exceeded for all HVAC loops, at RUN PERIOD 1, 01/01 13:15 - 13:30
   **   ~~~   ** The solution for one or more of the Air Loop HVAC systems did not appear to converge
   ** Warning ** SimHVAC: Maximum iterations (20) exceeded for all HVAC loops, at RUN PERIOD 1, 01/01 13:15 - 13:22
   **   ~~~   ** The solution for one or more of the Air Loop HVAC systems did not appear to converge
   ** Warning ** SimHVAC: Maximum iterations (20) exceeded for all HVAC loops, at RUN PERIOD 1, 01/01 13:45 - 14:00
   **   ~~~   ** The solution for one or more of the Air Loop HVAC systems did not appear to converge
   ** Warning ** SimHVAC: Maximum iterations (20) exceeded for all HVAC loops, at RUN PERIOD 1, 01/01 14:00 - 14:15
   **   ~~~   ** The solution for one or more of the Air Loop HVAC systems did not appear to converge
   ** Warning ** SimHVAC: Maximum iterations (20) exceeded for all HVAC loops, at RUN PERIOD 1, 01/01 16:30 - 16:45
   **   ~~~   ** The solution for one or more of the Air Loop HVAC systems did not appear to converge
   ** Warning ** SimHVAC: Maximum iterations (20) exceeded for all HVAC loops, at RUN PERIOD 1, 01/01 18:15 - 18:30
   **   ~~~   ** The solution for one or more of the Air Loop HVAC systems did not appear to converge
   ** Warning ** CalcDoe2DXCoil: Coil:Cooling:DX:SingleSpeed "RES AC|UNIT 3 COOLING COIL" - Air-cooled condenser inlet dry-bulb temperature below 0 C. Outdoor dry-bulb temperature = -5.15
   **   ~~~   **  ... Occurrence info = RUN PERIOD 1, 01/12 06:30 - 06:45
   **   ~~~   ** ... Operation at low ambient temperatures may require special performance curves.
   ** Warning ** CalcDoe2DXCoil: Coil:Cooling:DX:SingleSpeed "RES AC|UNIT 8 COOLING COIL" - Air-cooled condenser inlet dry-bulb temperature below 0 C. Outdoor dry-bulb temperature = -2.20
   **   ~~~   **  ... Occurrence info = RUN PERIOD 1, 02/02 21:45 - 22:00
   **   ~~~   ** ... Operation at low ambient temperatures may require special performance curves.
   ** Warning ** GetCurrentScheduleValue: Schedule="LIGHTING_EXTERIOR" is a Schedule:File
   **   ~~~   ** ...Use of Schedule:File when DaylightSavingTime is in effect is not recommended.
   **   ~~~   ** ...1) Remove RunperiodControl:DaylightSavingTime object or remove DST period from Weather File.
   **   ~~~   ** ...2) Configure other schedules and Schedule:File to account for occupant behavior during DST.
   **   ~~~   ** ...   If you have already done this, you can ignore this message.
   **   ~~~   ** ...When active, DaylightSavingTime will shift all scheduled items by one hour, retaining the same day type as the original.
   ** Warning ** The resource referenced by LifeCycleCost:UsePriceEscalation= "U.S. AVG  COMMERCIAL-ELECTRICITY" has no energy cost. 
   **   ~~~   ** ... It is likely that the wrong resource is used. The resource should match the meter used in Utility:Tariff.
   ** Warning ** The resource referenced by LifeCycleCost:UsePriceEscalation= "U.S. AVG  COMMERCIAL-DISTILLATE OIL" has no energy cost. 
   **   ~~~   ** ... It is likely that the wrong resource is used. The resource should match the meter used in Utility:Tariff.
   ** Warning ** The resource referenced by LifeCycleCost:UsePriceEscalation= "U.S. AVG  COMMERCIAL-RESIDUAL OIL" has no energy cost. 
   **   ~~~   ** ... It is likely that the wrong resource is used. The resource should match the meter used in Utility:Tariff.
   ** Warning ** The resource referenced by LifeCycleCost:UsePriceEscalation= "U.S. AVG  COMMERCIAL-NATURAL GAS" has no energy cost. 
   **   ~~~   ** ... It is likely that the wrong resource is used. The resource should match the meter used in Utility:Tariff.
   ** Warning ** The resource referenced by LifeCycleCost:UsePriceEscalation= "U.S. AVG  COMMERCIAL-COAL" has no energy cost. 
   **   ~~~   ** ... It is likely that the wrong resource is used. The resource should match the meter used in Utility:Tariff.
   ************* Simulation Error Summary *************
   ************* There are 3 unused schedules in input.
   ************* There are 45 unused week schedules in input.
   ************* There are 27 unused day schedules in input.
   ************* Use Output:Diagnostics,DisplayUnusedSchedules; to see them.
   *************
   ************* ===== Recurring Error Summary =====
   ************* The following recurring error messages occurred.
   *************
   *************  ** Warning ** SimHVAC: Exceeding Maximum iterations for all HVAC loops, during RUN PERIOD 1 continues
   *************  **   ~~~   **   This error occurred 1619 total times;
   *************  **   ~~~   **   during Warmup 0 times;
   *************  **   ~~~   **   during Sizing 0 times.
   *************
   *************  ** Warning ** CalcDoe2DXCoil: Coil:Cooling:DX:SingleSpeed="RES AC|UNIT 3 COOLING COIL" - Low condenser dry-bulb temperature error continues...
   *************  **   ~~~   **   This error occurred 38 total times;
   *************  **   ~~~   **   during Warmup 0 times;
   *************  **   ~~~   **   during Sizing 0 times.
   *************  **   ~~~   **   Max=-0.15 [C]  Min=-5.15 [C]
   *************
   *************  ** Warning ** CalcDoe2DXCoil: Coil:Cooling:DX:SingleSpeed="RES AC|UNIT 8 COOLING COIL" - Low condenser dry-bulb temperature error continues...
   *************  **   ~~~   **   This error occurred 11 total times;
   *************  **   ~~~   **   during Warmup 0 times;
   *************  **   ~~~   **   during Sizing 0 times.
   *************  **   ~~~   **   Max=-0.15 [C]  Min=-2.75 [C]
   *************
   *************
   ************* ===== Final Error Summary =====
   ************* The following error categories occurred.  Consider correcting or noting.
   ************* Nominally Unused Constructions
   ************* ..The nominally unused constructions warning is provided to alert you to potential conditions that can cause
   ************* ..extra time during simulation. Each construction is calculated by the algorithm indicated in the HeatBalanceAlgorithm
   ************* ..object. You may remove the constructions indicated (when you use the DisplayExtraWarnings option).
   *************
   ************* EnergyPlus Warmup Error Summary. During Warmup: 0 Warning; 0 Severe Errors.
   ************* EnergyPlus Sizing Error Summary. During Sizing: 0 Warning; 0 Severe Errors.
   ************* EnergyPlus Completed Successfully-- 1788 Warning; 0 Severe Errors; Elapsed Time=00hr 03min  2.18sec
